REMARK  Name = ./Bromopropionate_pose3.pdb
REMARK  3 active torsions:
REMARK  status: ('A' for Active; 'I' for Inactive)
REMARK    1  A    between atoms: C_2  and  C_3
REMARK    2  A    between atoms: C_2  and  O_6
REMARK    3  A    between atoms: C_3  and  C_5
REMARK                            x       y       z     vdW  Elec       q    Type
REMARK                         _______ _______ _______ _____ _____    ______ ____
ROOT
ATOM      1  O   UNL     1      26.969  39.032 -48.810  0.00  0.00    -0.249 OA
ATOM      2  C   UNL     1      27.803  38.179 -49.082  0.00  0.00    +0.324 C 
ENDROOT
BRANCH   2   3
ATOM      3  C   UNL     1      29.177  38.582 -49.540  0.00  0.00    +0.155 C 
ATOM      4  Br  UNL     1      29.052  39.541 -51.223  0.00  0.00    -0.070 Br
ATOM      5  C   UNL     1      29.868  39.453 -48.494  0.00  0.00    +0.024 C 
ENDBRANCH   2   3
BRANCH   2   6
ATOM      6  O   UNL     1      27.491  36.870 -48.972  0.00  0.00    -0.480 OA
ATOM      7  H   UNL     1      27.838  36.216 -49.594  0.00  0.00    +0.295 HD
ENDBRANCH   2   6
TORSDOF 2
