REMARK  Name = ./Rottlerin_pose1.pdb
REMARK  16 active torsions:
REMARK  status: ('A' for Active; 'I' for Inactive)
REMARK    1  A    between atoms: C_2  and  C_11
REMARK    2  A    between atoms: C_2  and  C_12
REMARK    3  A    between atoms: C_5  and  C_27
REMARK    4  A    between atoms: C_6  and  O_23
REMARK    5  A    between atoms: C_8  and  C_13
REMARK    6  A    between atoms: C_9  and  O_25
REMARK    7  A    between atoms: C_13  and  C_15
REMARK    8  A    between atoms: C_15  and  C_16
REMARK    9  A    between atoms: C_16  and  C_17
REMARK   10  A    between atoms: C_27  and  C_28
REMARK   11  A    between atoms: C_29  and  O_35
REMARK   12  A    between atoms: C_30  and  O_37
REMARK   13  A    between atoms: C_31  and  C_34
REMARK   14  A    between atoms: C_32  and  C_39
REMARK   15  A    between atoms: C_33  and  O_42
REMARK   16  A    between atoms: C_39  and  C_41
REMARK                            x       y       z     vdW  Elec       q    Type
REMARK                         _______ _______ _______ _____ _____    ______ ____
ROOT
ATOM      1  O   UNL     1      24.266  40.898 -45.321  0.00  0.00    -0.478 OA
ATOM      2  C   UNL     1      23.850  41.722 -44.277  0.00  0.00    +0.152 C 
ATOM      3  C   UNL     1      23.505  39.997 -45.999  0.00  0.00    +0.147 A 
ATOM      4  C   UNL     1      22.160  39.840 -45.673  0.00  0.00    +0.067 A 
ATOM      5  C   UNL     1      21.907  38.140 -47.425  0.00  0.00    +0.050 A 
ATOM      6  C   UNL     1      21.359  38.921 -46.365  0.00  0.00    +0.136 A 
ATOM      7  C   UNL     1      22.385  41.528 -43.925  0.00  0.00    +0.013 C 
ATOM      8  C   UNL     1      24.069  39.234 -47.033  0.00  0.00    +0.102 A 
ATOM      9  C   UNL     1      23.274  38.302 -47.750  0.00  0.00    +0.138 A 
ATOM     10  C   UNL     1      21.610  40.656 -44.574  0.00  0.00    +0.005 C 
ATOM     11  C   UNL     1      24.702  41.400 -43.045  0.00  0.00    +0.048 C 
ATOM     12  C   UNL     1      24.064  43.182 -44.696  0.00  0.00    +0.048 C 
ENDROOT
BRANCH   8  13
ATOM     13  C   UNL     1      25.495  39.458 -47.352  0.00  0.00    +0.179 C 
ATOM     14  O   UNL     1      25.896  40.596 -47.554  0.00  0.00    -0.291 OA
BRANCH  13  15
ATOM     15  C   UNL     1      26.359  38.287 -47.633  0.00  0.00    +0.074 C 
BRANCH  15  16
ATOM     16  C   UNL     1      26.925  38.088 -48.838  0.00  0.00    +0.034 C 
BRANCH  16  17
ATOM     17  C   UNL     1      28.131  38.807 -49.337  0.00  0.00    -0.022 A 
ATOM     18  C   UNL     1      29.158  39.278 -48.490  0.00  0.00    -0.004 A 
ATOM     19  C   UNL     1      28.257  39.006 -50.724  0.00  0.00    -0.004 A 
ATOM     20  C   UNL     1      30.276  39.926 -49.026  0.00  0.00    -0.000 A 
ATOM     21  C   UNL     1      29.379  39.651 -51.253  0.00  0.00    -0.000 A 
ATOM     22  C   UNL     1      30.388  40.110 -50.405  0.00  0.00    -0.000 A 
ENDBRANCH  16  17
ENDBRANCH  15  16
ENDBRANCH  13  15
ENDBRANCH   8  13
BRANCH   6  23
ATOM     23  O   UNL     1      20.078  38.795 -45.963  0.00  0.00    -0.506 OA
ATOM     24  H   UNL     1      19.319  39.087 -46.468  0.00  0.00    +0.292 HD
ENDBRANCH   6  23
BRANCH   9  25
ATOM     25  O   UNL     1      23.823  37.559 -48.741  0.00  0.00    -0.506 OA
ATOM     26  H   UNL     1      23.428  37.466 -49.619  0.00  0.00    +0.292 HD
ENDBRANCH   9  25
BRANCH   5  27
ATOM     27  C   UNL     1      21.048  37.131 -48.187  0.00  0.00    +0.065 C 
BRANCH  27  28
ATOM     28  C   UNL     1      20.811  35.847 -47.394  0.00  0.00    +0.050 A 
ATOM     29  C   UNL     1      20.133  34.745 -47.962  0.00  0.00    +0.132 A 
ATOM     30  C   UNL     1      21.245  35.776 -46.052  0.00  0.00    +0.138 A 
ATOM     31  C   UNL     1      19.946  33.551 -47.218  0.00  0.00    +0.045 A 
ATOM     32  C   UNL     1      20.999  34.616 -45.289  0.00  0.00    +0.102 A 
ATOM     33  C   UNL     1      20.369  33.503 -45.864  0.00  0.00    +0.138 A 
ATOM     34  C   UNL     1      19.311  32.359 -47.906  0.00  0.00    +0.037 C 
BRANCH  32  35
ATOM     35  C   UNL     1      21.370  34.553 -43.857  0.00  0.00    +0.179 C 
ATOM     36  O   UNL     1      20.678  35.139 -43.038  0.00  0.00    -0.291 OA
ATOM     37  C   UNL     1      22.522  33.728 -43.383  0.00  0.00    +0.077 C 
ENDBRANCH  32  35
BRANCH  29  38
ATOM     38  O   UNL     1      19.670  34.849 -49.230  0.00  0.00    -0.506 OA
ATOM     39  H   UNL     1      19.869  34.233 -49.947  0.00  0.00    +0.292 HD
ENDBRANCH  29  38
BRANCH  30  40
ATOM     40  O   UNL     1      21.852  36.850 -45.498  0.00  0.00    -0.506 OA
ATOM     41  H   UNL     1      21.670  37.764 -45.750  0.00  0.00    +0.292 HD
ENDBRANCH  30  40
BRANCH  33  42
ATOM     42  O   UNL     1      20.187  32.416 -45.075  0.00  0.00    -0.506 OA
ATOM     43  H   UNL     1      19.751  31.595 -45.320  0.00  0.00    +0.292 HD
ENDBRANCH  33  42
ENDBRANCH  27  28
ENDBRANCH   5  27
TORSDOF 12
