REMARK  Name = ./3N-propionate_pose7.pdb
REMARK  4 active torsions:
REMARK  status: ('A' for Active; 'I' for Inactive)
REMARK    1  A    between atoms: C_1  and  C_2
REMARK    2  A    between atoms: C_1  and  C_6
REMARK    3  A    between atoms: C_2  and  O_4
REMARK    4  A    between atoms: C_6  and  N_7
REMARK                            x       y       z     vdW  Elec       q    Type
REMARK                         _______ _______ _______ _____ _____    ______ ____
ROOT
ATOM      1  C   UNL     1      30.640  38.419 -57.322  0.00  0.00    +0.141 C 
ENDROOT
BRANCH   1   2
ATOM      2  C   UNL     1      31.873  38.816 -56.552  0.00  0.00    +0.316 C 
ATOM      3  O   UNL     1      32.943  38.254 -56.740  0.00  0.00    -0.250 OA
BRANCH   2   4
ATOM      4  O   UNL     1      31.786  39.808 -55.643  0.00  0.00    -0.480 OA
ATOM      5  H   UNL     1      32.511  40.436 -55.510  0.00  0.00    +0.295 HD
ENDBRANCH   2   4
ENDBRANCH   1   2
BRANCH   1   6
ATOM      6  C   UNL     1      30.658  38.898 -58.780  0.00  0.00    +0.205 C 
BRANCH   6   7
ATOM      7  N   UNL     1      29.602  38.263 -59.538  0.00  0.00    +0.035 N 
ATOM      8  O   UNL     1      28.433  38.037 -58.977  0.00  0.00    -0.131 OA
ATOM      9  O   UNL     1      29.791  37.919 -60.665  0.00  0.00    -0.131 OA
ENDBRANCH   6   7
ENDBRANCH   1   6
TORSDOF 4
