REMARK  Name = ./2N-propanol_pose14.pdb
REMARK  4 active torsions:
REMARK  status: ('A' for Active; 'I' for Inactive)
REMARK    1  A    between atoms: C_1  and  O_2
REMARK    2  A    between atoms: C_1  and  C_4
REMARK    3  A    between atoms: C_4  and  C_5
REMARK    4  A    between atoms: C_4  and  N_6
REMARK                            x       y       z     vdW  Elec       q    Type
REMARK                         _______ _______ _______ _____ _____    ______ ____
ROOT
ATOM      1  C   UNL     1      42.730  43.262 -58.114  0.00  0.00    +0.195 C 
ATOM      2  C   UNL     1      42.248  41.876 -57.673  0.00  0.00    +0.034 C 
ENDROOT
BRANCH   1   3
ATOM      3  N   UNL     1      41.641  44.219 -58.031  0.00  0.00    +0.035 N 
ATOM      4  O   UNL     1      40.417  43.802 -57.787  0.00  0.00    -0.131 OA
ATOM      5  O   UNL     1      41.844  45.386 -58.184  0.00  0.00    -0.131 OA
ENDBRANCH   1   3
BRANCH   1   6
ATOM      6  C   UNL     1      43.920  43.724 -57.260  0.00  0.00    +0.167 C 
BRANCH   6   7
ATOM      7  O   UNL     1      44.025  42.912 -56.123  0.00  0.00    -0.380 OA
ATOM      8  H   UNL     1      43.161  42.429 -56.050  0.00  0.00    +0.211 HD
ENDBRANCH   6   7
ENDBRANCH   1   6
TORSDOF 3
