REMARK  Name = ./BES_pose8.pdb
REMARK  5 active torsions:
REMARK  status: ('A' for Active; 'I' for Inactive)
REMARK    1  A    between atoms: C_1  and  C_2
REMARK    2  A    between atoms: C_1  and  S_4
REMARK    3  A    between atoms: S_4  and  O_5
REMARK    4  A    between atoms: S_4  and  O_6
REMARK    5  A    between atoms: S_4  and  O_7
REMARK                            x       y       z     vdW  Elec       q    Type
REMARK                         _______ _______ _______ _____ _____    ______ ____
ROOT
ATOM      1  S   UNL     1      28.624  39.040 -49.502  0.00  0.00    +0.023 S 
ENDROOT
BRANCH   1   2
ATOM      2  O   UNL     1      29.758  39.457 -48.282  0.00  0.00    -0.069 OA
ATOM      3  H   UNL     1      30.632  39.111 -48.521  0.00  0.00    +0.000 HD
ENDBRANCH   1   2
BRANCH   1   4
ATOM      4  O   UNL     1      27.291  39.632 -49.025  0.00  0.00    -0.069 OA
ATOM      5  H   UNL     1      26.598  39.432 -49.674  0.00  0.00    +0.000 HD
ENDBRANCH   1   4
BRANCH   1   6
ATOM      6  O   UNL     1      28.368  37.537 -49.318  0.00  0.00    -0.069 OA
ATOM      7  H   UNL     1      27.730  37.234 -49.983  0.00  0.00    +0.000 HD
ENDBRANCH   1   6
BRANCH   1   8
ATOM      8  C   UNL     1      28.976  39.474 -51.233  0.00  0.00    +0.170 C 
BRANCH   8   9
ATOM      9  C   UNL     1      30.179  40.406 -51.310  0.00  0.00    +0.093 C 
ATOM     10  Br  UNL     1      30.968  40.330 -53.078  0.00  0.00    -0.079 Br
ENDBRANCH   8   9
ENDBRANCH   1   8
TORSDOF 5
