REMARK  Name = ./Rosu_pose1.pdb
REMARK  17 active torsions:
REMARK  status: ('A' for Active; 'I' for Inactive)
REMARK    1  A    between atoms: C_1  and  C_2
REMARK    2  A    between atoms: C_1  and  O_26
REMARK    3  A    between atoms: C_1  and  C_28
REMARK    4  A    between atoms: C_2  and  C_3
REMARK    5  A    between atoms: C_3  and  C_4
REMARK    6  A    between atoms: C_8  and  C_16
REMARK    7  A    between atoms: C_9  and  C_19
REMARK    8  A    between atoms: N_10  and  C_11
REMARK    9  A    between atoms: N_10  and  S_12
REMARK   10  A    between atoms: S_12  and  C_15
REMARK   11  A    between atoms: C_16  and  C_17
REMARK   12  A    between atoms: C_16  and  C_18
REMARK   13  A    between atoms: C_28  and  C_29
REMARK   14  A    between atoms: C_29  and  O_30
REMARK   15  A    between atoms: C_29  and  C_32
REMARK   16  A    between atoms: C_32  and  C_33
REMARK   17  A    between atoms: C_33  and  O_35
REMARK                            x       y       z     vdW  Elec       q    Type
REMARK                         _______ _______ _______ _____ _____    ______ ____
ROOT
ATOM      1  C   UNL     1      24.337  39.259 -46.483  0.00  0.00    +0.009 A 
ATOM      2  C   UNL     1      22.201  37.515 -46.209  0.00  0.00    +0.239 A 
ATOM      3  N   UNL     1      23.246  37.201 -47.012  0.00  0.00    -0.217 NA
ATOM      4  N   UNL     1      22.222  38.678 -45.511  0.00  0.00    -0.213 NA
ATOM      5  C   UNL     1      24.329  38.009 -47.138  0.00  0.00    +0.059 A 
ATOM      6  C   UNL     1      23.230  39.583 -45.658  0.00  0.00    +0.081 A 
ATOM      7  N   UNL     1      21.087  36.634 -46.111  0.00  0.00    -0.160 N 
ATOM      8  C   UNL     1      20.370  36.296 -47.323  0.00  0.00    +0.142 C 
ENDROOT
BRANCH   6   9
ATOM      9  C   UNL     1      23.120  40.882 -44.946  0.00  0.00    +0.018 A 
ATOM     10  C   UNL     1      22.244  41.025 -43.858  0.00  0.00    +0.004 A 
ATOM     11  C   UNL     1      23.861  42.001 -45.377  0.00  0.00    +0.004 A 
ATOM     12  C   UNL     1      22.138  42.253 -43.195  0.00  0.00    +0.030 A 
ATOM     13  C   UNL     1      23.732  43.230 -44.730  0.00  0.00    +0.030 A 
ATOM     14  C   UNL     1      22.879  43.354 -43.634  0.00  0.00    +0.140 A 
ATOM     15  F   UNL     1      22.763  44.546 -43.000  0.00  0.00    -0.204 F 
ENDBRANCH   6   9
BRANCH   7  16
ATOM     16  S   UNL     1      21.166  35.370 -44.894  0.00  0.00    +0.061 S 
ATOM     17  O   UNL     1      22.648  35.297 -44.500  0.00  0.00    -0.154 OA
ATOM     18  O   UNL     1      20.944  34.042 -45.635  0.00  0.00    -0.154 OA
ATOM     19  C   UNL     1      20.044  35.659 -43.498  0.00  0.00    +0.200 C 
ENDBRANCH   7  16
BRANCH   5  20
ATOM     20  C   UNL     1      25.502  37.491 -47.955  0.00  0.00    +0.040 C 
ATOM     21  C   UNL     1      25.082  37.223 -49.402  0.00  0.00    +0.006 C 
ATOM     22  C   UNL     1      26.040  36.208 -47.305  0.00  0.00    +0.006 C 
ENDBRANCH   5  20
BRANCH   1  23
ATOM     23  C   UNL     1      25.502  40.176 -46.558  0.00  0.00    +0.032 C 
BRANCH  23  24
ATOM     24  C   UNL     1      26.042  40.499 -47.745  0.00  0.00    +0.034 C 
BRANCH  24  25
ATOM     25  C   UNL     1      27.495  40.227 -48.079  0.00  0.00    +0.113 C 
BRANCH  25  26
ATOM     26  O   UNL     1      28.053  39.336 -47.146  0.00  0.00    -0.384 OA
ATOM     27  H   UNL     1      28.418  39.884 -46.404  0.00  0.00    +0.210 HD
ENDBRANCH  25  26
BRANCH  25  28
ATOM     28  C   UNL     1      27.658  39.649 -49.501  0.00  0.00    +0.059 C 
BRANCH  28  29
ATOM     29  C   UNL     1      29.097  39.156 -49.781  0.00  0.00    +0.124 C 
BRANCH  29  30
ATOM     30  O   UNL     1      29.154  37.763 -49.586  0.00  0.00    -0.384 OA
ATOM     31  H   UNL     1      29.682  37.374 -50.329  0.00  0.00    +0.210 HD
ENDBRANCH  29  30
BRANCH  29  32
ATOM     32  C   UNL     1      29.528  39.503 -51.222  0.00  0.00    +0.139 C 
BRANCH  32  33
ATOM     33  C   UNL     1      30.162  40.867 -51.359  0.00  0.00    +0.316 C 
ATOM     34  O   UNL     1      30.994  41.266 -50.557  0.00  0.00    -0.250 OA
BRANCH  33  35
ATOM     35  O   UNL     1      29.763  41.676 -52.363  0.00  0.00    -0.480 OA
ATOM     36  H   UNL     1      30.354  42.347 -52.734  0.00  0.00    +0.295 HD
ENDBRANCH  33  35
ENDBRANCH  32  33
ENDBRANCH  29  32
ENDBRANCH  28  29
ENDBRANCH  25  28
ENDBRANCH  24  25
ENDBRANCH  23  24
ENDBRANCH   1  23
TORSDOF 13
