REMARK  Name = ./CoB7_pose5.pdb
REMARK  15 active torsions:
REMARK  status: ('A' for Active; 'I' for Inactive)
REMARK    1  A    between atoms: C_1  and  C_2
REMARK    2  A    between atoms: N_3  and  C_6
REMARK    3  A    between atoms: C_6  and  C_7
REMARK    4  A    between atoms: C_6  and  C_16
REMARK    5  A    between atoms: C_7  and  C_8
REMARK    6  A    between atoms: C_7  and  O_9
REMARK    7  A    between atoms: O_9  and  P_10
REMARK    8  A    between atoms: P_10  and  O_12
REMARK    9  A    between atoms: P_10  and  O_14
REMARK   10  A    between atoms: C_16  and  O_18
REMARK   11  A    between atoms: C_20  and  C_21
REMARK   12  A    between atoms: C_21  and  C_22
REMARK   13  A    between atoms: C_22  and  C_23
REMARK   14  A    between atoms: C_23  and  C_24
REMARK   15  A    between atoms: C_24  and  S_25
REMARK                            x       y       z     vdW  Elec       q    Type
REMARK                         _______ _______ _______ _____ _____    ______ ____
ROOT
ATOM      1  C   UNL     1      27.725  38.926 -48.273  0.00  0.00    +0.199 C 
ENDROOT
BRANCH   1   3
ATOM      2  C   UNL     1      29.195  39.397 -50.266  0.00  0.00    +0.246 C 
ATOM      3  N   UNL     1      28.134  39.682 -49.461  0.00  0.00    -0.291 N 
ATOM      4  H   UNL     1      27.561  40.499 -49.734  0.00  0.00    +0.150 HD
ATOM      5  O   UNL     1      29.911  38.437 -50.039  0.00  0.00    -0.270 OA
BRANCH   2   6
ATOM      6  C   UNL     1      29.465  40.294 -51.457  0.00  0.00    +0.053 C 
ATOM      7  C   UNL     1      30.933  40.377 -51.920  0.00  0.00    -0.021 C 
BRANCH   7   8
ATOM      8  C   UNL     1      31.164  40.918 -53.345  0.00  0.00    +0.026 C 
BRANCH   8   9
ATOM      9  C   UNL     1      31.952  39.947 -54.238  0.00  0.00    +0.006 C 
BRANCH   9  10
ATOM     10  C   UNL     1      31.134  39.450 -55.442  0.00  0.00    +0.012 C 
BRANCH  10  11
ATOM     11  C   UNL     1      32.010  38.960 -56.602  0.00  0.00    +0.053 C 
BRANCH  11  12
ATOM     12  S   UNL     1      30.986  38.590 -58.059  0.00  0.00    -0.168 S 
ATOM     13  H   UNL     1      32.108  38.397 -58.887  0.00  0.00    +0.102 HD
ENDBRANCH  11  12
ENDBRANCH  10  11
ENDBRANCH   9  10
ENDBRANCH   8   9
ENDBRANCH   7   8
ENDBRANCH   2   6
ENDBRANCH   1   3
BRANCH   1  14
ATOM     14  C   UNL     1      26.829  39.755 -47.286  0.00  0.00    +0.155 C 
ATOM     15  C   UNL     1      27.602  40.940 -46.685  0.00  0.00    +0.035 C 
BRANCH  14  16
ATOM     16  O   UNL     1      25.733  40.290 -48.000  0.00  0.00    -0.274 OA
BRANCH  16  17
ATOM     17  P   UNL     1      24.214  40.024 -47.169  0.00  0.00    +0.473 P 
ATOM     18  O   UNL     1      23.129  40.232 -48.263  0.00  0.00    -0.227 OA
BRANCH  17  19
ATOM     19  O   UNL     1      24.006  38.399 -46.586  0.00  0.00    -0.303 OA
ATOM     20  H   UNL     1      24.864  38.167 -46.146  0.00  0.00    +0.222 HD
ENDBRANCH  17  19
BRANCH  17  21
ATOM     21  O   UNL     1      23.893  41.223 -45.951  0.00  0.00    -0.303 OA
ATOM     22  H   UNL     1      24.232  42.074 -46.332  0.00  0.00    +0.222 HD
ENDBRANCH  17  21
ENDBRANCH  16  17
ENDBRANCH  14  16
ENDBRANCH   1  14
BRANCH   1  23
ATOM     23  C   UNL     1      26.995  37.678 -48.743  0.00  0.00    +0.334 C 
ATOM     24  O   UNL     1      27.626  36.662 -48.982  0.00  0.00    -0.248 OA
BRANCH  23  25
ATOM     25  O   UNL     1      25.655  37.679 -48.929  0.00  0.00    -0.479 OA
ATOM     26  H   UNL     1      25.237  37.186 -49.649  0.00  0.00    +0.295 HD
ENDBRANCH  23  25
ENDBRANCH   1  23
TORSDOF 14
