REMARK  Name = ./CoB5_pose4.pdb
REMARK  14 active torsions:
REMARK  status: ('A' for Active; 'I' for Inactive)
REMARK    1  A    between atoms: N_1  and  C_5
REMARK    2  A    between atoms: C_2  and  C_19
REMARK    3  A    between atoms: C_5  and  C_6
REMARK    4  A    between atoms: C_5  and  C_15
REMARK    5  A    between atoms: C_6  and  C_7
REMARK    6  A    between atoms: C_6  and  O_8
REMARK    7  A    between atoms: O_8  and  P_9
REMARK    8  A    between atoms: P_9  and  O_11
REMARK    9  A    between atoms: P_9  and  O_13
REMARK   10  A    between atoms: C_15  and  O_17
REMARK   11  A    between atoms: C_19  and  C_20
REMARK   12  A    between atoms: C_20  and  C_21
REMARK   13  A    between atoms: C_21  and  C_22
REMARK   14  A    between atoms: C_22  and  S_23
REMARK                            x       y       z     vdW  Elec       q    Type
REMARK                         _______ _______ _______ _____ _____    ______ ____
ROOT
ATOM      1  C   UNL     1      27.739  39.355 -49.240  0.00  0.00    +0.199 C 
ENDROOT
BRANCH   1   2
ATOM      2  N   UNL     1      28.766  39.027 -50.225  0.00  0.00    -0.295 N 
ATOM      3  C   UNL     1      29.112  39.824 -51.276  0.00  0.00    +0.223 C 
ATOM      4  O   UNL     1      28.576  40.910 -51.438  0.00  0.00    -0.275 OA
ATOM      5  H   UNL     1      29.287  38.143 -50.113  0.00  0.00    +0.150 HD
BRANCH   3   6
ATOM      6  C   UNL     1      30.175  39.328 -52.239  0.00  0.00    +0.085 C 
BRANCH   6   7
ATOM      7  C   UNL     1      30.851  40.404 -53.112  0.00  0.00    +0.010 C 
BRANCH   7   8
ATOM      8  C   UNL     1      31.878  39.864 -54.127  0.00  0.00    +0.012 C 
BRANCH   8   9
ATOM      9  C   UNL     1      31.273  39.594 -55.510  0.00  0.00    +0.053 C 
BRANCH   9  10
ATOM     10  S   UNL     1      32.409  38.593 -56.519  0.00  0.00    -0.168 S 
ATOM     11  H   UNL     1      32.940  39.720 -57.174  0.00  0.00    +0.102 HD
ENDBRANCH   9  10
ENDBRANCH   8   9
ENDBRANCH   7   8
ENDBRANCH   6   7
ENDBRANCH   3   6
ENDBRANCH   1   2
BRANCH   1  12
ATOM     12  C   UNL     1      26.829  38.128 -48.913  0.00  0.00    +0.155 C 
ATOM     13  C   UNL     1      27.567  36.788 -49.038  0.00  0.00    +0.035 C 
BRANCH  12  14
ATOM     14  O   UNL     1      26.334  38.209 -47.589  0.00  0.00    -0.274 OA
BRANCH  14  15
ATOM     15  P   UNL     1      24.597  38.445 -47.566  0.00  0.00    +0.473 P 
ATOM     16  O   UNL     1      24.086  37.963 -46.182  0.00  0.00    -0.227 OA
BRANCH  15  17
ATOM     17  O   UNL     1      24.098  40.096 -47.766  0.00  0.00    -0.303 OA
ATOM     18  H   UNL     1      24.697  40.453 -48.468  0.00  0.00    +0.222 HD
ENDBRANCH  15  17
BRANCH  15  19
ATOM     19  O   UNL     1      23.839  37.425 -48.749  0.00  0.00    -0.303 OA
ATOM     20  H   UNL     1      24.018  37.870 -49.615  0.00  0.00    +0.222 HD
ENDBRANCH  15  19
ENDBRANCH  14  15
ENDBRANCH  12  14
ENDBRANCH   1  12
BRANCH   1  21
ATOM     21  C   UNL     1      28.393  39.904 -47.980  0.00  0.00    +0.334 C 
ATOM     22  O   UNL     1      29.564  39.666 -47.734  0.00  0.00    -0.248 OA
BRANCH  21  23
ATOM     23  O   UNL     1      27.689  40.669 -47.116  0.00  0.00    -0.479 OA
ATOM     24  H   UNL     1      28.087  41.422 -46.657  0.00  0.00    +0.295 HD
ENDBRANCH  21  23
ENDBRANCH   1  21
TORSDOF 13
