REMARK  Name = ./3NOP_pose14.pdb
REMARK  5 active torsions:
REMARK  status: ('A' for Active; 'I' for Inactive)
REMARK    1  A    between atoms: C_1  and  O_2
REMARK    2  A    between atoms: C_1  and  C_6
REMARK    3  A    between atoms: O_2  and  N_3
REMARK    4  A    between atoms: C_6  and  C_7
REMARK    5  A    between atoms: C_7  and  O_8
REMARK                            x       y       z     vdW  Elec       q    Type
REMARK                         _______ _______ _______ _____ _____    ______ ____
ROOT
ATOM      1  C   UNL     1      30.071  38.824 -59.397  0.00  0.00    +0.246 C 
ENDROOT
BRANCH   1   2
ATOM      2  O   UNL     1      29.410  37.830 -60.088  0.00  0.00    -0.336 OA
BRANCH   2   3
ATOM      3  N   UNL     1      28.100  37.671 -60.031  0.00  0.00    +0.218 N 
ATOM      4  O   UNL     1      27.371  38.350 -59.170  0.00  0.00    -0.090 OA
ATOM      5  O   UNL     1      27.568  36.903 -60.773  0.00  0.00    -0.090 OA
ENDBRANCH   2   3
ENDBRANCH   1   2
BRANCH   1   6
ATOM      6  C   UNL     1      30.488  38.304 -58.021  0.00  0.00    +0.082 C 
BRANCH   6   7
ATOM      7  C   UNL     1      31.736  39.029 -57.517  0.00  0.00    +0.141 C 
BRANCH   7   8
ATOM      8  O   UNL     1      32.559  38.121 -56.841  0.00  0.00    -0.382 OA
ATOM      9  H   UNL     1      33.391  38.054 -57.378  0.00  0.00    +0.210 HD
ENDBRANCH   7   8
ENDBRANCH   6   7
ENDBRANCH   1   6
TORSDOF 5
