REMARK  Name = ./Lova_pose2.pdb
REMARK  12 active torsions:
REMARK  status: ('A' for Active; 'I' for Inactive)
REMARK    1  A    between atoms: C_2  and  C_20
REMARK    2  A    between atoms: C_3  and  O_13
REMARK    3  A    between atoms: C_4  and  C_11
REMARK    4  A    between atoms: C_7  and  C_12
REMARK    5  A    between atoms: O_13  and  C_14
REMARK    6  A    between atoms: C_14  and  C_16
REMARK    7  A    between atoms: C_16  and  C_17
REMARK    8  A    between atoms: C_16  and  C_18
REMARK    9  A    between atoms: C_18  and  C_19
REMARK   10  A    between atoms: C_20  and  C_21
REMARK   11  A    between atoms: C_21  and  C_22
REMARK   12  A    between atoms: C_26  and  O_29
REMARK                            x       y       z     vdW  Elec       q    Type
REMARK                         _______ _______ _______ _____ _____    ______ ____
ROOT
ATOM      1  C   UNL     1      22.048  37.349 -46.661  0.00  0.00    +0.062 C 
ATOM      2  C   UNL     1      22.019  38.790 -47.258  0.00  0.00    +0.012 C 
ATOM      3  C   UNL     1      22.689  37.267 -45.247  0.00  0.00    +0.173 C 
ATOM      4  C   UNL     1      21.374  38.782 -48.688  0.00  0.00    +0.022 C 
ATOM      5  C   UNL     1      20.634  36.768 -46.674  0.00  0.00    -0.024 C 
ATOM      6  C   UNL     1      22.514  35.843 -44.702  0.00  0.00    +0.048 C 
ATOM      7  C   UNL     1      21.027  35.451 -44.549  0.00  0.00    +0.025 C 
ATOM      8  C   UNL     1      20.191  35.915 -45.723  0.00  0.00    -0.030 C 
ATOM      9  C   UNL     1      20.068  38.026 -48.716  0.00  0.00    -0.027 C 
ATOM     10  C   UNL     1      19.722  37.126 -47.786  0.00  0.00    -0.009 C 
ATOM     11  C   UNL     1      22.277  38.229 -49.805  0.00  0.00    +0.005 C 
ATOM     12  C   UNL     1      20.387  35.972 -43.253  0.00  0.00    +0.005 C 
ENDROOT
BRANCH   3  13
ATOM     13  O   UNL     1      22.119  38.198 -44.397  0.00  0.00    -0.452 OA
BRANCH  13  14
ATOM     14  C   UNL     1      22.793  39.215 -43.796  0.00  0.00    +0.316 C 
ATOM     15  O   UNL     1      23.699  38.986 -43.005  0.00  0.00    -0.250 OA
BRANCH  14  16
ATOM     16  C   UNL     1      22.462  40.635 -44.182  0.00  0.00    +0.099 C 
ATOM     17  C   UNL     1      21.830  41.382 -42.999  0.00  0.00    +0.012 C 
BRANCH  16  18
ATOM     18  C   UNL     1      23.718  41.375 -44.684  0.00  0.00    +0.011 C 
ATOM     19  C   UNL     1      24.151  42.480 -43.717  0.00  0.00    +0.001 C 
ENDBRANCH  16  18
ENDBRANCH  14  16
ENDBRANCH  13  14
ENDBRANCH   3  13
BRANCH   2  20
ATOM     20  C   UNL     1      23.412  39.486 -47.230  0.00  0.00    +0.004 C 
BRANCH  20  21
ATOM     21  C   UNL     1      24.583  38.519 -47.501  0.00  0.00    +0.044 C 
BRANCH  21  22
ATOM     22  C   UNL     1      25.769  39.222 -48.180  0.00  0.00    +0.171 C 
ATOM     23  O   UNL     1      26.278  40.221 -47.354  0.00  0.00    -0.452 OA
ATOM     24  C   UNL     1      26.851  38.181 -48.563  0.00  0.00    +0.073 C 
ATOM     25  C   UNL     1      27.596  40.448 -47.106  0.00  0.00    +0.319 C 
ATOM     26  C   UNL     1      28.108  38.911 -49.037  0.00  0.00    +0.125 C 
ATOM     27  C   UNL     1      28.679  39.720 -47.863  0.00  0.00    +0.139 C 
ATOM     28  O   UNL     1      27.908  41.224 -46.216  0.00  0.00    -0.250 OA
BRANCH  26  29
ATOM     29  O   UNL     1      27.794  39.773 -50.100  0.00  0.00    -0.384 OA
ATOM     30  H   UNL     1      28.571  40.382 -50.208  0.00  0.00    +0.210 HD
ENDBRANCH  26  29
ENDBRANCH  21  22
ENDBRANCH  20  21
ENDBRANCH   2  20
TORSDOF 8
