REMARK  Name = ./CoB6_pose3.pdb
REMARK  15 active torsions:
REMARK  status: ('A' for Active; 'I' for Inactive)
REMARK    1  A    between atoms: N_1  and  C_5
REMARK    2  A    between atoms: C_2  and  C_19
REMARK    3  A    between atoms: C_5  and  C_6
REMARK    4  A    between atoms: C_5  and  C_15
REMARK    5  A    between atoms: C_6  and  C_7
REMARK    6  A    between atoms: C_6  and  O_8
REMARK    7  A    between atoms: O_8  and  P_9
REMARK    8  A    between atoms: P_9  and  O_11
REMARK    9  A    between atoms: P_9  and  O_13
REMARK   10  A    between atoms: C_15  and  O_17
REMARK   11  A    between atoms: C_19  and  C_20
REMARK   12  A    between atoms: C_20  and  C_21
REMARK   13  A    between atoms: C_21  and  C_22
REMARK   14  A    between atoms: C_22  and  C_23
REMARK   15  A    between atoms: C_23  and  S_24
REMARK                            x       y       z     vdW  Elec       q    Type
REMARK                         _______ _______ _______ _____ _____    ______ ____
ROOT
ATOM      1  C   UNL     1      27.675  39.374 -49.194  0.00  0.00    +0.199 C 
ENDROOT
BRANCH   1   2
ATOM      2  N   UNL     1      28.655  39.030 -50.225  0.00  0.00    -0.295 N 
ATOM      3  C   UNL     1      28.991  39.849 -51.263  0.00  0.00    +0.223 C 
ATOM      4  O   UNL     1      28.446  40.934 -51.408  0.00  0.00    -0.275 OA
ATOM      5  H   UNL     1      29.217  38.174 -50.104  0.00  0.00    +0.150 HD
BRANCH   3   6
ATOM      6  C   UNL     1      30.124  39.465 -52.186  0.00  0.00    +0.085 C 
BRANCH   6   7
ATOM      7  C   UNL     1      30.955  40.664 -52.680  0.00  0.00    +0.010 C 
BRANCH   7   8
ATOM      8  C   UNL     1      31.883  40.348 -53.869  0.00  0.00    +0.001 C 
BRANCH   8   9
ATOM      9  C   UNL     1      31.155  39.638 -55.029  0.00  0.00    +0.011 C 
BRANCH   9  10
ATOM     10  C   UNL     1      32.106  39.190 -56.144  0.00  0.00    +0.053 C 
BRANCH  10  11
ATOM     11  S   UNL     1      31.209  38.571 -57.604  0.00  0.00    -0.168 S 
ATOM     12  H   UNL     1      32.328  37.859 -58.078  0.00  0.00    +0.102 HD
ENDBRANCH  10  11
ENDBRANCH   9  10
ENDBRANCH   8   9
ENDBRANCH   7   8
ENDBRANCH   6   7
ENDBRANCH   3   6
ENDBRANCH   1   2
BRANCH   1  13
ATOM     13  C   UNL     1      26.751  38.170 -48.837  0.00  0.00    +0.155 C 
ATOM     14  C   UNL     1      27.496  36.833 -49.040  0.00  0.00    +0.035 C 
BRANCH  13  15
ATOM     15  O   UNL     1      26.374  38.277 -47.479  0.00  0.00    -0.274 OA
BRANCH  15  16
ATOM     16  P   UNL     1      24.628  38.197 -47.300  0.00  0.00    +0.473 P 
ATOM     17  O   UNL     1      24.399  37.240 -46.098  0.00  0.00    -0.227 OA
BRANCH  16  18
ATOM     18  O   UNL     1      23.927  39.722 -46.864  0.00  0.00    -0.303 OA
ATOM     19  H   UNL     1      23.194  39.500 -46.234  0.00  0.00    +0.222 HD
ENDBRANCH  16  18
BRANCH  16  20
ATOM     20  O   UNL     1      23.823  37.459 -48.649  0.00  0.00    -0.303 OA
ATOM     21  H   UNL     1      24.550  37.095 -49.215  0.00  0.00    +0.222 HD
ENDBRANCH  16  20
ENDBRANCH  15  16
ENDBRANCH  13  15
ENDBRANCH   1  13
BRANCH   1  22
ATOM     22  C   UNL     1      28.413  39.903 -47.975  0.00  0.00    +0.334 C 
ATOM     23  O   UNL     1      29.582  39.597 -47.800  0.00  0.00    -0.248 OA
BRANCH  22  24
ATOM     24  O   UNL     1      27.803  40.697 -47.069  0.00  0.00    -0.479 OA
ATOM     25  H   UNL     1      28.302  41.175 -46.392  0.00  0.00    +0.295 HD
ENDBRANCH  22  24
ENDBRANCH   1  22
TORSDOF 14
