MODEL        1
REMARK  Name = ./2N-ethanol_pose11.pdb
REMARK  0 active torsions:
REMARK  status: ('A' for Active; 'I' for Inactive)
REMARK                            x       y       z     vdW  Elec       q    Type
REMARK                         _______ _______ _______ _____ _____    ______ ____
ROOT
ATOM      1 Br   UNK     0      28.275  37.980 -59.487  0.00  0.00    -0.056 Br
ATOM      2 Br   UNK     0      30.768  39.821 -60.386  0.00  0.00    -0.056 Br
ATOM      3 Br   UNK     0      30.721  38.492 -57.446  0.00  0.00    -0.056 Br
ATOM      4  C   UNK     0      30.182  38.316 -59.305  0.00  0.00    +0.169 C 
ENDROOT
TORSDOF 0
ENDMDL
MODEL        2
REMARK  Name = ./2N-ethanol_pose11.pdb
REMARK  4 active torsions:
REMARK  status: ('A' for Active; 'I' for Inactive)
REMARK    1  A    between atoms: C_1  and  O_2
REMARK    2  A    between atoms: C_1  and  C_4
REMARK    3  A    between atoms: C_4  and  C_5
REMARK    4  A    between atoms: C_4  and  N_6
REMARK                            x       y       z     vdW  Elec       q    Type
REMARK                         _______ _______ _______ _____ _____    ______ ____
ROOT
ATOM      1  C   UNL     1      42.730  43.262 -58.114  0.00  0.00    +0.195 C 
ATOM      2  C   UNL     1      42.248  41.876 -57.673  0.00  0.00    +0.034 C 
ENDROOT
BRANCH   1   3
ATOM      3  N   UNL     1      41.641  44.219 -58.031  0.00  0.00    +0.035 N 
ATOM      4  O   UNL     1      40.417  43.802 -57.787  0.00  0.00    -0.131 OA
ATOM      5  O   UNL     1      41.844  45.386 -58.184  0.00  0.00    -0.131 OA
ENDBRANCH   1   3
BRANCH   1   6
ATOM      6  C   UNL     1      43.920  43.724 -57.260  0.00  0.00    +0.167 C 
BRANCH   6   7
ATOM      7  O   UNL     1      44.025  42.912 -56.123  0.00  0.00    -0.380 OA
ATOM      8  H   UNL     1      43.161  42.429 -56.050  0.00  0.00    +0.211 HD
ENDBRANCH   6   7
ENDBRANCH   1   6
TORSDOF 3
ENDMDL
MODEL        3
REMARK  Name = ./2N-ethanol_pose11.pdb
REMARK  4 active torsions:
REMARK  status: ('A' for Active; 'I' for Inactive)
REMARK    1  A    between atoms: C_1  and  C_2
REMARK    2  A    between atoms: C_1  and  C_6
REMARK    3  A    between atoms: C_2  and  O_4
REMARK    4  A    between atoms: C_6  and  N_7
REMARK                            x       y       z     vdW  Elec       q    Type
REMARK                         _______ _______ _______ _____ _____    ______ ____
ROOT
ATOM      1  C   UNL     1      30.640  38.419 -57.322  0.00  0.00    +0.141 C 
ENDROOT
BRANCH   1   2
ATOM      2  C   UNL     1      31.873  38.816 -56.552  0.00  0.00    +0.316 C 
ATOM      3  O   UNL     1      32.943  38.254 -56.740  0.00  0.00    -0.250 OA
BRANCH   2   4
ATOM      4  O   UNL     1      31.786  39.808 -55.643  0.00  0.00    -0.480 OA
ATOM      5  H   UNL     1      32.511  40.436 -55.510  0.00  0.00    +0.295 HD
ENDBRANCH   2   4
ENDBRANCH   1   2
BRANCH   1   6
ATOM      6  C   UNL     1      30.658  38.898 -58.780  0.00  0.00    +0.205 C 
BRANCH   6   7
ATOM      7  N   UNL     1      29.602  38.263 -59.538  0.00  0.00    +0.035 N 
ATOM      8  O   UNL     1      28.433  38.037 -58.977  0.00  0.00    -0.131 OA
ATOM      9  O   UNL     1      29.791  37.919 -60.665  0.00  0.00    -0.131 OA
ENDBRANCH   6   7
ENDBRANCH   1   6
TORSDOF 4
ENDMDL
MODEL        4
REMARK  Name = ./2N-ethanol_pose11.pdb
REMARK  5 active torsions:
REMARK  status: ('A' for Active; 'I' for Inactive)
REMARK    1  A    between atoms: C_1  and  O_2
REMARK    2  A    between atoms: C_1  and  C_6
REMARK    3  A    between atoms: O_2  and  N_3
REMARK    4  A    between atoms: C_6  and  C_7
REMARK    5  A    between atoms: C_7  and  O_8
REMARK                            x       y       z     vdW  Elec       q    Type
REMARK                         _______ _______ _______ _____ _____    ______ ____
ROOT
ATOM      1  C   UNL     1      30.071  38.824 -59.397  0.00  0.00    +0.246 C 
ENDROOT
BRANCH   1   2
ATOM      2  O   UNL     1      29.410  37.830 -60.088  0.00  0.00    -0.336 OA
BRANCH   2   3
ATOM      3  N   UNL     1      28.100  37.671 -60.031  0.00  0.00    +0.218 N 
ATOM      4  O   UNL     1      27.371  38.350 -59.170  0.00  0.00    -0.090 OA
ATOM      5  O   UNL     1      27.568  36.903 -60.773  0.00  0.00    -0.090 OA
ENDBRANCH   2   3
ENDBRANCH   1   2
BRANCH   1   6
ATOM      6  C   UNL     1      30.488  38.304 -58.021  0.00  0.00    +0.082 C 
BRANCH   6   7
ATOM      7  C   UNL     1      31.736  39.029 -57.517  0.00  0.00    +0.141 C 
BRANCH   7   8
ATOM      8  O   UNL     1      32.559  38.121 -56.841  0.00  0.00    -0.382 OA
ATOM      9  H   UNL     1      33.391  38.054 -57.378  0.00  0.00    +0.210 HD
ENDBRANCH   7   8
ENDBRANCH   6   7
ENDBRANCH   1   6
TORSDOF 5
ENDMDL
MODEL        5
REMARK  Name = ./2N-ethanol_pose11.pdb
REMARK  5 active torsions:
REMARK  status: ('A' for Active; 'I' for Inactive)
REMARK    1  A    between atoms: C_1  and  C_2
REMARK    2  A    between atoms: C_1  and  S_4
REMARK    3  A    between atoms: S_4  and  O_5
REMARK    4  A    between atoms: S_4  and  O_6
REMARK    5  A    between atoms: S_4  and  O_7
REMARK                            x       y       z     vdW  Elec       q    Type
REMARK                         _______ _______ _______ _____ _____    ______ ____
ROOT
ATOM      1  S   UNL     1      28.624  39.040 -49.502  0.00  0.00    +0.023 S 
ENDROOT
BRANCH   1   2
ATOM      2  O   UNL     1      29.758  39.457 -48.282  0.00  0.00    -0.069 OA
ATOM      3  H   UNL     1      30.632  39.111 -48.521  0.00  0.00    +0.000 HD
ENDBRANCH   1   2
BRANCH   1   4
ATOM      4  O   UNL     1      27.291  39.632 -49.025  0.00  0.00    -0.069 OA
ATOM      5  H   UNL     1      26.598  39.432 -49.674  0.00  0.00    +0.000 HD
ENDBRANCH   1   4
BRANCH   1   6
ATOM      6  O   UNL     1      28.368  37.537 -49.318  0.00  0.00    -0.069 OA
ATOM      7  H   UNL     1      27.730  37.234 -49.983  0.00  0.00    +0.000 HD
ENDBRANCH   1   6
BRANCH   1   8
ATOM      8  C   UNL     1      28.976  39.474 -51.233  0.00  0.00    +0.170 C 
BRANCH   8   9
ATOM      9  C   UNL     1      30.179  40.406 -51.310  0.00  0.00    +0.093 C 
ATOM     10  Br  UNL     1      30.968  40.330 -53.078  0.00  0.00    -0.079 Br
ENDBRANCH   8   9
ENDBRANCH   1   8
TORSDOF 5
ENDMDL
MODEL        6
REMARK  Name = ./2N-ethanol_pose11.pdb
REMARK  3 active torsions:
REMARK  status: ('A' for Active; 'I' for Inactive)
REMARK    1  A    between atoms: C_2  and  C_3
REMARK    2  A    between atoms: C_2  and  O_6
REMARK    3  A    between atoms: C_3  and  C_5
REMARK                            x       y       z     vdW  Elec       q    Type
REMARK                         _______ _______ _______ _____ _____    ______ ____
ROOT
ATOM      1  O   UNL     1      26.969  39.032 -48.810  0.00  0.00    -0.249 OA
ATOM      2  C   UNL     1      27.803  38.179 -49.082  0.00  0.00    +0.324 C 
ENDROOT
BRANCH   2   3
ATOM      3  C   UNL     1      29.177  38.582 -49.540  0.00  0.00    +0.155 C 
ATOM      4  Br  UNL     1      29.052  39.541 -51.223  0.00  0.00    -0.070 Br
ATOM      5  C   UNL     1      29.868  39.453 -48.494  0.00  0.00    +0.024 C 
ENDBRANCH   2   3
BRANCH   2   6
ATOM      6  O   UNL     1      27.491  36.870 -48.972  0.00  0.00    -0.480 OA
ATOM      7  H   UNL     1      27.838  36.216 -49.594  0.00  0.00    +0.295 HD
ENDBRANCH   2   6
TORSDOF 2
ENDMDL
MODEL        7
REMARK  Name = ./2N-ethanol_pose11.pdb
REMARK  14 active torsions:
REMARK  status: ('A' for Active; 'I' for Inactive)
REMARK    1  A    between atoms: N_1  and  C_5
REMARK    2  A    between atoms: C_2  and  C_19
REMARK    3  A    between atoms: C_5  and  C_6
REMARK    4  A    between atoms: C_5  and  C_15
REMARK    5  A    between atoms: C_6  and  C_7
REMARK    6  A    between atoms: C_6  and  O_8
REMARK    7  A    between atoms: O_8  and  P_9
REMARK    8  A    between atoms: P_9  and  O_11
REMARK    9  A    between atoms: P_9  and  O_13
REMARK   10  A    between atoms: C_15  and  O_17
REMARK   11  A    between atoms: C_19  and  C_20
REMARK   12  A    between atoms: C_20  and  C_21
REMARK   13  A    between atoms: C_21  and  C_22
REMARK   14  A    between atoms: C_22  and  S_23
REMARK                            x       y       z     vdW  Elec       q    Type
REMARK                         _______ _______ _______ _____ _____    ______ ____
ROOT
ATOM      1  C   UNL     1      27.739  39.355 -49.240  0.00  0.00    +0.199 C 
ENDROOT
BRANCH   1   2
ATOM      2  N   UNL     1      28.766  39.027 -50.225  0.00  0.00    -0.295 N 
ATOM      3  C   UNL     1      29.112  39.824 -51.276  0.00  0.00    +0.223 C 
ATOM      4  O   UNL     1      28.576  40.910 -51.438  0.00  0.00    -0.275 OA
ATOM      5  H   UNL     1      29.287  38.143 -50.113  0.00  0.00    +0.150 HD
BRANCH   3   6
ATOM      6  C   UNL     1      30.175  39.328 -52.239  0.00  0.00    +0.085 C 
BRANCH   6   7
ATOM      7  C   UNL     1      30.851  40.404 -53.112  0.00  0.00    +0.010 C 
BRANCH   7   8
ATOM      8  C   UNL     1      31.878  39.864 -54.127  0.00  0.00    +0.012 C 
BRANCH   8   9
ATOM      9  C   UNL     1      31.273  39.594 -55.510  0.00  0.00    +0.053 C 
BRANCH   9  10
ATOM     10  S   UNL     1      32.409  38.593 -56.519  0.00  0.00    -0.168 S 
ATOM     11  H   UNL     1      32.940  39.720 -57.174  0.00  0.00    +0.102 HD
ENDBRANCH   9  10
ENDBRANCH   8   9
ENDBRANCH   7   8
ENDBRANCH   6   7
ENDBRANCH   3   6
ENDBRANCH   1   2
BRANCH   1  12
ATOM     12  C   UNL     1      26.829  38.128 -48.913  0.00  0.00    +0.155 C 
ATOM     13  C   UNL     1      27.567  36.788 -49.038  0.00  0.00    +0.035 C 
BRANCH  12  14
ATOM     14  O   UNL     1      26.334  38.209 -47.589  0.00  0.00    -0.274 OA
BRANCH  14  15
ATOM     15  P   UNL     1      24.597  38.445 -47.566  0.00  0.00    +0.473 P 
ATOM     16  O   UNL     1      24.086  37.963 -46.182  0.00  0.00    -0.227 OA
BRANCH  15  17
ATOM     17  O   UNL     1      24.098  40.096 -47.766  0.00  0.00    -0.303 OA
ATOM     18  H   UNL     1      24.697  40.453 -48.468  0.00  0.00    +0.222 HD
ENDBRANCH  15  17
BRANCH  15  19
ATOM     19  O   UNL     1      23.839  37.425 -48.749  0.00  0.00    -0.303 OA
ATOM     20  H   UNL     1      24.018  37.870 -49.615  0.00  0.00    +0.222 HD
ENDBRANCH  15  19
ENDBRANCH  14  15
ENDBRANCH  12  14
ENDBRANCH   1  12
BRANCH   1  21
ATOM     21  C   UNL     1      28.393  39.904 -47.980  0.00  0.00    +0.334 C 
ATOM     22  O   UNL     1      29.564  39.666 -47.734  0.00  0.00    -0.248 OA
BRANCH  21  23
ATOM     23  O   UNL     1      27.689  40.669 -47.116  0.00  0.00    -0.479 OA
ATOM     24  H   UNL     1      28.087  41.422 -46.657  0.00  0.00    +0.295 HD
ENDBRANCH  21  23
ENDBRANCH   1  21
TORSDOF 13
ENDMDL
MODEL        8
REMARK  Name = ./2N-ethanol_pose11.pdb
REMARK  15 active torsions:
REMARK  status: ('A' for Active; 'I' for Inactive)
REMARK    1  A    between atoms: N_1  and  C_5
REMARK    2  A    between atoms: C_2  and  C_19
REMARK    3  A    between atoms: C_5  and  C_6
REMARK    4  A    between atoms: C_5  and  C_15
REMARK    5  A    between atoms: C_6  and  C_7
REMARK    6  A    between atoms: C_6  and  O_8
REMARK    7  A    between atoms: O_8  and  P_9
REMARK    8  A    between atoms: P_9  and  O_11
REMARK    9  A    between atoms: P_9  and  O_13
REMARK   10  A    between atoms: C_15  and  O_17
REMARK   11  A    between atoms: C_19  and  C_20
REMARK   12  A    between atoms: C_20  and  C_21
REMARK   13  A    between atoms: C_21  and  C_22
REMARK   14  A    between atoms: C_22  and  C_23
REMARK   15  A    between atoms: C_23  and  S_24
REMARK                            x       y       z     vdW  Elec       q    Type
REMARK                         _______ _______ _______ _____ _____    ______ ____
ROOT
ATOM      1  C   UNL     1      27.675  39.374 -49.194  0.00  0.00    +0.199 C 
ENDROOT
BRANCH   1   2
ATOM      2  N   UNL     1      28.655  39.030 -50.225  0.00  0.00    -0.295 N 
ATOM      3  C   UNL     1      28.991  39.849 -51.263  0.00  0.00    +0.223 C 
ATOM      4  O   UNL     1      28.446  40.934 -51.408  0.00  0.00    -0.275 OA
ATOM      5  H   UNL     1      29.217  38.174 -50.104  0.00  0.00    +0.150 HD
BRANCH   3   6
ATOM      6  C   UNL     1      30.124  39.465 -52.186  0.00  0.00    +0.085 C 
BRANCH   6   7
ATOM      7  C   UNL     1      30.955  40.664 -52.680  0.00  0.00    +0.010 C 
BRANCH   7   8
ATOM      8  C   UNL     1      31.883  40.348 -53.869  0.00  0.00    +0.001 C 
BRANCH   8   9
ATOM      9  C   UNL     1      31.155  39.638 -55.029  0.00  0.00    +0.011 C 
BRANCH   9  10
ATOM     10  C   UNL     1      32.106  39.190 -56.144  0.00  0.00    +0.053 C 
BRANCH  10  11
ATOM     11  S   UNL     1      31.209  38.571 -57.604  0.00  0.00    -0.168 S 
ATOM     12  H   UNL     1      32.328  37.859 -58.078  0.00  0.00    +0.102 HD
ENDBRANCH  10  11
ENDBRANCH   9  10
ENDBRANCH   8   9
ENDBRANCH   7   8
ENDBRANCH   6   7
ENDBRANCH   3   6
ENDBRANCH   1   2
BRANCH   1  13
ATOM     13  C   UNL     1      26.751  38.170 -48.837  0.00  0.00    +0.155 C 
ATOM     14  C   UNL     1      27.496  36.833 -49.040  0.00  0.00    +0.035 C 
BRANCH  13  15
ATOM     15  O   UNL     1      26.374  38.277 -47.479  0.00  0.00    -0.274 OA
BRANCH  15  16
ATOM     16  P   UNL     1      24.628  38.197 -47.300  0.00  0.00    +0.473 P 
ATOM     17  O   UNL     1      24.399  37.240 -46.098  0.00  0.00    -0.227 OA
BRANCH  16  18
ATOM     18  O   UNL     1      23.927  39.722 -46.864  0.00  0.00    -0.303 OA
ATOM     19  H   UNL     1      23.194  39.500 -46.234  0.00  0.00    +0.222 HD
ENDBRANCH  16  18
BRANCH  16  20
ATOM     20  O   UNL     1      23.823  37.459 -48.649  0.00  0.00    -0.303 OA
ATOM     21  H   UNL     1      24.550  37.095 -49.215  0.00  0.00    +0.222 HD
ENDBRANCH  16  20
ENDBRANCH  15  16
ENDBRANCH  13  15
ENDBRANCH   1  13
BRANCH   1  22
ATOM     22  C   UNL     1      28.413  39.903 -47.975  0.00  0.00    +0.334 C 
ATOM     23  O   UNL     1      29.582  39.597 -47.800  0.00  0.00    -0.248 OA
BRANCH  22  24
ATOM     24  O   UNL     1      27.803  40.697 -47.069  0.00  0.00    -0.479 OA
ATOM     25  H   UNL     1      28.302  41.175 -46.392  0.00  0.00    +0.295 HD
ENDBRANCH  22  24
ENDBRANCH   1  22
TORSDOF 14
ENDMDL
MODEL        9
REMARK  Name = ./2N-ethanol_pose11.pdb
REMARK  15 active torsions:
REMARK  status: ('A' for Active; 'I' for Inactive)
REMARK    1  A    between atoms: C_1  and  C_2
REMARK    2  A    between atoms: N_3  and  C_6
REMARK    3  A    between atoms: C_6  and  C_7
REMARK    4  A    between atoms: C_6  and  C_16
REMARK    5  A    between atoms: C_7  and  C_8
REMARK    6  A    between atoms: C_7  and  O_9
REMARK    7  A    between atoms: O_9  and  P_10
REMARK    8  A    between atoms: P_10  and  O_12
REMARK    9  A    between atoms: P_10  and  O_14
REMARK   10  A    between atoms: C_16  and  O_18
REMARK   11  A    between atoms: C_20  and  C_21
REMARK   12  A    between atoms: C_21  and  C_22
REMARK   13  A    between atoms: C_22  and  C_23
REMARK   14  A    between atoms: C_23  and  C_24
REMARK   15  A    between atoms: C_24  and  S_25
REMARK                            x       y       z     vdW  Elec       q    Type
REMARK                         _______ _______ _______ _____ _____    ______ ____
ROOT
ATOM      1  C   UNL     1      27.725  38.926 -48.273  0.00  0.00    +0.199 C 
ENDROOT
BRANCH   1   3
ATOM      2  C   UNL     1      29.195  39.397 -50.266  0.00  0.00    +0.246 C 
ATOM      3  N   UNL     1      28.134  39.682 -49.461  0.00  0.00    -0.291 N 
ATOM      4  H   UNL     1      27.561  40.499 -49.734  0.00  0.00    +0.150 HD
ATOM      5  O   UNL     1      29.911  38.437 -50.039  0.00  0.00    -0.270 OA
BRANCH   2   6
ATOM      6  C   UNL     1      29.465  40.294 -51.457  0.00  0.00    +0.053 C 
ATOM      7  C   UNL     1      30.933  40.377 -51.920  0.00  0.00    -0.021 C 
BRANCH   7   8
ATOM      8  C   UNL     1      31.164  40.918 -53.345  0.00  0.00    +0.026 C 
BRANCH   8   9
ATOM      9  C   UNL     1      31.952  39.947 -54.238  0.00  0.00    +0.006 C 
BRANCH   9  10
ATOM     10  C   UNL     1      31.134  39.450 -55.442  0.00  0.00    +0.012 C 
BRANCH  10  11
ATOM     11  C   UNL     1      32.010  38.960 -56.602  0.00  0.00    +0.053 C 
BRANCH  11  12
ATOM     12  S   UNL     1      30.986  38.590 -58.059  0.00  0.00    -0.168 S 
ATOM     13  H   UNL     1      32.108  38.397 -58.887  0.00  0.00    +0.102 HD
ENDBRANCH  11  12
ENDBRANCH  10  11
ENDBRANCH   9  10
ENDBRANCH   8   9
ENDBRANCH   7   8
ENDBRANCH   2   6
ENDBRANCH   1   3
BRANCH   1  14
ATOM     14  C   UNL     1      26.829  39.755 -47.286  0.00  0.00    +0.155 C 
ATOM     15  C   UNL     1      27.602  40.940 -46.685  0.00  0.00    +0.035 C 
BRANCH  14  16
ATOM     16  O   UNL     1      25.733  40.290 -48.000  0.00  0.00    -0.274 OA
BRANCH  16  17
ATOM     17  P   UNL     1      24.214  40.024 -47.169  0.00  0.00    +0.473 P 
ATOM     18  O   UNL     1      23.129  40.232 -48.263  0.00  0.00    -0.227 OA
BRANCH  17  19
ATOM     19  O   UNL     1      24.006  38.399 -46.586  0.00  0.00    -0.303 OA
ATOM     20  H   UNL     1      24.864  38.167 -46.146  0.00  0.00    +0.222 HD
ENDBRANCH  17  19
BRANCH  17  21
ATOM     21  O   UNL     1      23.893  41.223 -45.951  0.00  0.00    -0.303 OA
ATOM     22  H   UNL     1      24.232  42.074 -46.332  0.00  0.00    +0.222 HD
ENDBRANCH  17  21
ENDBRANCH  16  17
ENDBRANCH  14  16
ENDBRANCH   1  14
BRANCH   1  23
ATOM     23  C   UNL     1      26.995  37.678 -48.743  0.00  0.00    +0.334 C 
ATOM     24  O   UNL     1      27.626  36.662 -48.982  0.00  0.00    -0.248 OA
BRANCH  23  25
ATOM     25  O   UNL     1      25.655  37.679 -48.929  0.00  0.00    -0.479 OA
ATOM     26  H   UNL     1      25.237  37.186 -49.649  0.00  0.00    +0.295 HD
ENDBRANCH  23  25
ENDBRANCH   1  23
TORSDOF 14
ENDMDL
MODEL       10
REMARK  Name = ./2N-ethanol_pose11.pdb
REMARK  17 active torsions:
REMARK  status: ('A' for Active; 'I' for Inactive)
REMARK    1  A    between atoms: C_1  and  C_2
REMARK    2  A    between atoms: C_1  and  C_20
REMARK    3  A    between atoms: N_3  and  C_6
REMARK    4  A    between atoms: C_6  and  C_7
REMARK    5  A    between atoms: C_6  and  C_16
REMARK    6  A    between atoms: C_7  and  C_8
REMARK    7  A    between atoms: C_7  and  O_9
REMARK    8  A    between atoms: O_9  and  P_10
REMARK    9  A    between atoms: P_10  and  O_12
REMARK   10  A    between atoms: P_10  and  O_14
REMARK   11  A    between atoms: C_16  and  O_18
REMARK   12  A    between atoms: C_20  and  C_21
REMARK   13  A    between atoms: C_21  and  C_22
REMARK   14  A    between atoms: C_22  and  C_23
REMARK   15  A    between atoms: C_23  and  C_24
REMARK   16  A    between atoms: C_24  and  C_25
REMARK   17  A    between atoms: C_25  and  S_26
REMARK                            x       y       z     vdW  Elec       q    Type
REMARK                         _______ _______ _______ _____ _____    ______ ____
ROOT
ATOM      1  C   UNL     1      25.075  38.669 -47.037  0.00  0.00    +0.199 C 
ENDROOT
BRANCH   1   3
ATOM      2  C   UNL     1      27.022  38.909 -48.612  0.00  0.00    +0.223 C 
ATOM      3  N   UNL     1      25.794  38.406 -48.290  0.00  0.00    -0.295 N 
ATOM      4  H   UNL     1      25.362  37.756 -48.962  0.00  0.00    +0.150 HD
ATOM      5  O   UNL     1      27.600  39.681 -47.865  0.00  0.00    -0.275 OA
BRANCH   2   6
ATOM      6  C   UNL     1      27.721  38.474 -49.883  0.00  0.00    +0.085 C 
BRANCH   6   7
ATOM      7  C   UNL     1      28.384  39.612 -50.679  0.00  0.00    +0.010 C 
BRANCH   7   8
ATOM      8  C   UNL     1      29.850  39.358 -51.046  0.00  0.00    +0.001 C 
BRANCH   8   9
ATOM      9  C   UNL     1      30.092  39.761 -52.510  0.00  0.00    +0.000 C 
BRANCH   9  10
ATOM     10  C   UNL     1      31.401  40.537 -52.686  0.00  0.00    +0.001 C 
BRANCH  10  11
ATOM     11  C   UNL     1      31.843  40.519 -54.156  0.00  0.00    +0.011 C 
BRANCH  11  12
ATOM     12  C   UNL     1      31.141  39.406 -54.936  0.00  0.00    +0.053 C 
BRANCH  12  13
ATOM     13  S   UNL     1      32.035  39.047 -56.479  0.00  0.00    -0.168 S 
ATOM     14  H   UNL     1      33.203  38.639 -55.806  0.00  0.00    +0.102 HD
ENDBRANCH  12  13
ENDBRANCH  11  12
ENDBRANCH  10  11
ENDBRANCH   9  10
ENDBRANCH   8   9
ENDBRANCH   7   8
ENDBRANCH   6   7
ENDBRANCH   2   6
ENDBRANCH   1   3
BRANCH   1  15
ATOM     15  C   UNL     1      23.800  39.556 -47.184  0.00  0.00    +0.155 C 
ATOM     16  C   UNL     1      22.742  39.018 -48.170  0.00  0.00    +0.035 C 
BRANCH  15  17
ATOM     17  O   UNL     1      23.344  39.943 -45.886  0.00  0.00    -0.274 OA
BRANCH  17  18
ATOM     18  P   UNL     1      23.966  41.466 -45.262  0.00  0.00    +0.473 P 
ATOM     19  O   UNL     1      23.643  42.510 -46.367  0.00  0.00    -0.227 OA
BRANCH  18  20
ATOM     20  O   UNL     1      23.106  42.002 -43.851  0.00  0.00    -0.303 OA
ATOM     21  H   UNL     1      22.152  42.016 -44.120  0.00  0.00    +0.222 HD
ENDBRANCH  18  20
BRANCH  18  22
ATOM     22  O   UNL     1      25.691  41.490 -45.052  0.00  0.00    -0.303 OA
ATOM     23  H   UNL     1      25.840  41.751 -44.108  0.00  0.00    +0.222 HD
ENDBRANCH  18  22
ENDBRANCH  17  18
ENDBRANCH  15  17
ENDBRANCH   1  15
BRANCH   1  24
ATOM     24  C   UNL     1      24.757  37.347 -46.360  0.00  0.00    +0.334 C 
ATOM     25  O   UNL     1      23.758  37.248 -45.665  0.00  0.00    -0.248 OA
BRANCH  24  26
ATOM     26  O   UNL     1      25.589  36.285 -46.463  0.00  0.00    -0.479 OA
ATOM     27  H   UNL     1      25.281  35.373 -46.365  0.00  0.00    +0.295 HD
ENDBRANCH  24  26
ENDBRANCH   1  24
TORSDOF 16
ENDMDL
MODEL       11
REMARK  Name = ./2N-ethanol_pose11.pdb
REMARK  18 active torsions:
REMARK  status: ('A' for Active; 'I' for Inactive)
REMARK    1  A    between atoms: C_1  and  C_2
REMARK    2  A    between atoms: C_1  and  C_21
REMARK    3  A    between atoms: C_2  and  C_3
REMARK    4  A    between atoms: N_4  and  C_7
REMARK    5  A    between atoms: C_7  and  C_8
REMARK    6  A    between atoms: C_7  and  C_17
REMARK    7  A    between atoms: C_8  and  C_9
REMARK    8  A    between atoms: C_8  and  O_10
REMARK    9  A    between atoms: O_10  and  P_11
REMARK   10  A    between atoms: P_11  and  O_13
REMARK   11  A    between atoms: P_11  and  O_15
REMARK   12  A    between atoms: C_17  and  O_19
REMARK   13  A    between atoms: C_21  and  C_22
REMARK   14  A    between atoms: C_22  and  C_23
REMARK   15  A    between atoms: C_23  and  C_24
REMARK   16  A    between atoms: C_24  and  C_25
REMARK   17  A    between atoms: C_25  and  C_26
REMARK   18  A    between atoms: C_26  and  S_27
REMARK                            x       y       z     vdW  Elec       q    Type
REMARK                         _______ _______ _______ _____ _____    ______ ____
ROOT
ATOM      1  C   UNL     1      26.450  38.518 -48.285  0.00  0.00    +0.223 C 
ATOM      2  N   UNL     1      25.186  38.020 -48.135  0.00  0.00    -0.295 N 
ATOM      3  H   UNL     1      24.823  37.327 -48.805  0.00  0.00    +0.150 HD
ATOM      4  O   UNL     1      26.874  39.355 -47.500  0.00  0.00    -0.275 OA
ENDROOT
BRANCH   1   5
ATOM      5  C   UNL     1      27.389  38.062 -49.387  0.00  0.00    +0.085 C 
BRANCH   5   6
ATOM      6  C   UNL     1      28.588  38.991 -49.662  0.00  0.00    +0.010 C 
BRANCH   6   7
ATOM      7  C   UNL     1      28.525  39.687 -51.034  0.00  0.00    +0.001 C 
BRANCH   7   8
ATOM      8  C   UNL     1      29.802  39.484 -51.866  0.00  0.00    +0.000 C 
BRANCH   8   9
ATOM      9  C   UNL     1      30.467  40.821 -52.210  0.00  0.00    +0.000 C 
BRANCH   9  10
ATOM     10  C   UNL     1      31.539  40.623 -53.289  0.00  0.00    +0.001 C 
BRANCH  10  11
ATOM     11  C   UNL     1      31.029  39.730 -54.423  0.00  0.00    +0.011 C 
BRANCH  11  12
ATOM     12  C   UNL     1      32.157  39.389 -55.396  0.00  0.00    +0.053 C 
BRANCH  12  13
ATOM     13  S   UNL     1      31.480  38.785 -56.973  0.00  0.00    -0.168 S 
ATOM     14  H   UNL     1      31.193  40.083 -57.438  0.00  0.00    +0.102 HD
ENDBRANCH  12  13
ENDBRANCH  11  12
ENDBRANCH  10  11
ENDBRANCH   9  10
ENDBRANCH   8   9
ENDBRANCH   7   8
ENDBRANCH   6   7
ENDBRANCH   5   6
ENDBRANCH   1   5
BRANCH   2  15
ATOM     15  C   UNL     1      24.299  38.398 -47.043  0.00  0.00    +0.199 C 
BRANCH  15  16
ATOM     16  C   UNL     1      22.854  38.579 -47.573  0.00  0.00    +0.155 C 
ATOM     17  C   UNL     1      22.687  39.828 -48.468  0.00  0.00    +0.035 C 
BRANCH  16  18
ATOM     18  O   UNL     1      22.355  37.374 -48.147  0.00  0.00    -0.274 OA
BRANCH  18  19
ATOM     19  P   UNL     1      20.843  36.813 -47.444  0.00  0.00    +0.473 P 
ATOM     20  O   UNL     1      20.068  38.090 -47.022  0.00  0.00    -0.227 OA
BRANCH  19  21
ATOM     21  O   UNL     1      19.837  35.995 -48.602  0.00  0.00    -0.303 OA
ATOM     22  H   UNL     1      20.330  36.050 -49.459  0.00  0.00    +0.222 HD
ENDBRANCH  19  21
BRANCH  19  23
ATOM     23  O   UNL     1      21.041  35.884 -45.992  0.00  0.00    -0.303 OA
ATOM     24  H   UNL     1      20.172  35.963 -45.521  0.00  0.00    +0.222 HD
ENDBRANCH  19  23
ENDBRANCH  18  19
ENDBRANCH  16  18
ENDBRANCH  15  16
BRANCH  15  25
ATOM     25  C   UNL     1      24.367  37.321 -45.981  0.00  0.00    +0.334 C 
ATOM     26  O   UNL     1      23.563  37.319 -45.061  0.00  0.00    -0.248 OA
BRANCH  25  27
ATOM     27  O   UNL     1      25.307  36.353 -46.033  0.00  0.00    -0.479 OA
ATOM     28  H   UNL     1      25.093  35.422 -45.882  0.00  0.00    +0.295 HD
ENDBRANCH  25  27
ENDBRANCH  15  25
ENDBRANCH   2  15
TORSDOF 17
ENDMDL
MODEL       12
REMARK  Name = ./2N-ethanol_pose11.pdb
REMARK  6 active torsions:
REMARK  status: ('A' for Active; 'I' for Inactive)
REMARK    1  A    between atoms: C_1  and  S_2
REMARK    2  A    between atoms: C_1  and  C_7
REMARK    3  A    between atoms: S_2  and  O_3
REMARK    4  A    between atoms: S_2  and  O_4
REMARK    5  A    between atoms: S_2  and  O_5
REMARK    6  A    between atoms: C_7  and  S_8
REMARK                            x       y       z     vdW  Elec       q    Type
REMARK                         _______ _______ _______ _____ _____    ______ ____
ROOT
ATOM      1  S   UNL     1      28.569  38.867 -49.343  0.00  0.00    -0.009 S 
ENDROOT
BRANCH   1   2
ATOM      2  O   UNL     1      29.920  39.079 -48.857  0.00  0.00    -0.072 OA
ATOM      3  H   UNL     1      30.524  38.463 -49.300  0.00  0.00    +0.000 HD
ENDBRANCH   1   2
BRANCH   1   4
ATOM      4  O   UNL     1      27.958  37.551 -49.339  0.00  0.00    -0.072 OA
ATOM      5  H   UNL     1      28.544  36.921 -49.786  0.00  0.00    +0.000 HD
ENDBRANCH   1   4
BRANCH   1   6
ATOM      6  O   UNL     1      27.569  39.911 -48.587  0.00  0.00    -0.271 OA
ATOM      7  H   UNL     1      26.945  39.506 -47.940  0.00  0.00    +0.243 HD
ENDBRANCH   1   6
BRANCH   1   8
ATOM      8  C   UNL     1      28.431  39.552 -50.965  0.00  0.00    +0.166 C 
BRANCH   8   9
ATOM      9  C   UNL     1      29.763  39.502 -51.690  0.00  0.00    +0.079 C 
BRANCH   9  10
ATOM     10  S   UNL     1      30.327  41.178 -52.096  0.00  0.00    -0.166 S 
ATOM     11  H   UNL     1      31.116  41.341 -51.025  0.00  0.00    +0.102 HD
ENDBRANCH   9  10
ENDBRANCH   8   9
ENDBRANCH   1   8
TORSDOF 6
ENDMDL
MODEL       13
REMARK  Name = ./2N-ethanol_pose11.pdb
REMARK  12 active torsions:
REMARK  status: ('A' for Active; 'I' for Inactive)
REMARK    1  A    between atoms: C_2  and  C_20
REMARK    2  A    between atoms: C_3  and  O_13
REMARK    3  A    between atoms: C_4  and  C_11
REMARK    4  A    between atoms: C_7  and  C_12
REMARK    5  A    between atoms: O_13  and  C_14
REMARK    6  A    between atoms: C_14  and  C_16
REMARK    7  A    between atoms: C_16  and  C_17
REMARK    8  A    between atoms: C_16  and  C_18
REMARK    9  A    between atoms: C_18  and  C_19
REMARK   10  A    between atoms: C_20  and  C_21
REMARK   11  A    between atoms: C_21  and  C_22
REMARK   12  A    between atoms: C_26  and  O_29
REMARK                            x       y       z     vdW  Elec       q    Type
REMARK                         _______ _______ _______ _____ _____    ______ ____
ROOT
ATOM      1  C   UNL     1      22.048  37.349 -46.661  0.00  0.00    +0.062 C 
ATOM      2  C   UNL     1      22.019  38.790 -47.258  0.00  0.00    +0.012 C 
ATOM      3  C   UNL     1      22.689  37.267 -45.247  0.00  0.00    +0.173 C 
ATOM      4  C   UNL     1      21.374  38.782 -48.688  0.00  0.00    +0.022 C 
ATOM      5  C   UNL     1      20.634  36.768 -46.674  0.00  0.00    -0.024 C 
ATOM      6  C   UNL     1      22.514  35.843 -44.702  0.00  0.00    +0.048 C 
ATOM      7  C   UNL     1      21.027  35.451 -44.549  0.00  0.00    +0.025 C 
ATOM      8  C   UNL     1      20.191  35.915 -45.723  0.00  0.00    -0.030 C 
ATOM      9  C   UNL     1      20.068  38.026 -48.716  0.00  0.00    -0.027 C 
ATOM     10  C   UNL     1      19.722  37.126 -47.786  0.00  0.00    -0.009 C 
ATOM     11  C   UNL     1      22.277  38.229 -49.805  0.00  0.00    +0.005 C 
ATOM     12  C   UNL     1      20.387  35.972 -43.253  0.00  0.00    +0.005 C 
ENDROOT
BRANCH   3  13
ATOM     13  O   UNL     1      22.119  38.198 -44.397  0.00  0.00    -0.452 OA
BRANCH  13  14
ATOM     14  C   UNL     1      22.793  39.215 -43.796  0.00  0.00    +0.316 C 
ATOM     15  O   UNL     1      23.699  38.986 -43.005  0.00  0.00    -0.250 OA
BRANCH  14  16
ATOM     16  C   UNL     1      22.462  40.635 -44.182  0.00  0.00    +0.099 C 
ATOM     17  C   UNL     1      21.830  41.382 -42.999  0.00  0.00    +0.012 C 
BRANCH  16  18
ATOM     18  C   UNL     1      23.718  41.375 -44.684  0.00  0.00    +0.011 C 
ATOM     19  C   UNL     1      24.151  42.480 -43.717  0.00  0.00    +0.001 C 
ENDBRANCH  16  18
ENDBRANCH  14  16
ENDBRANCH  13  14
ENDBRANCH   3  13
BRANCH   2  20
ATOM     20  C   UNL     1      23.412  39.486 -47.230  0.00  0.00    +0.004 C 
BRANCH  20  21
ATOM     21  C   UNL     1      24.583  38.519 -47.501  0.00  0.00    +0.044 C 
BRANCH  21  22
ATOM     22  C   UNL     1      25.769  39.222 -48.180  0.00  0.00    +0.171 C 
ATOM     23  O   UNL     1      26.278  40.221 -47.354  0.00  0.00    -0.452 OA
ATOM     24  C   UNL     1      26.851  38.181 -48.563  0.00  0.00    +0.073 C 
ATOM     25  C   UNL     1      27.596  40.448 -47.106  0.00  0.00    +0.319 C 
ATOM     26  C   UNL     1      28.108  38.911 -49.037  0.00  0.00    +0.125 C 
ATOM     27  C   UNL     1      28.679  39.720 -47.863  0.00  0.00    +0.139 C 
ATOM     28  O   UNL     1      27.908  41.224 -46.216  0.00  0.00    -0.250 OA
BRANCH  26  29
ATOM     29  O   UNL     1      27.794  39.773 -50.100  0.00  0.00    -0.384 OA
ATOM     30  H   UNL     1      28.571  40.382 -50.208  0.00  0.00    +0.210 HD
ENDBRANCH  26  29
ENDBRANCH  21  22
ENDBRANCH  20  21
ENDBRANCH   2  20
TORSDOF 8
ENDMDL
MODEL       14
REMARK  Name = ./2N-ethanol_pose11.pdb
REMARK  2 active torsions:
REMARK  status: ('A' for Active; 'I' for Inactive)
REMARK    1  A    between atoms: C_3  and  N_12
REMARK    2  A    between atoms: C_4  and  N_15
REMARK                            x       y       z     vdW  Elec       q    Type
REMARK                         _______ _______ _______ _____ _____    ______ ____
ROOT
ATOM      1  C   UNL     1      23.335  38.469 -47.860  0.00  0.00    +0.195 A 
ATOM      2  N   UNL     1      24.401  37.749 -48.287  0.00  0.00    -0.199 NA
ATOM      3  C   UNL     1      25.682  38.182 -48.140  0.00  0.00    +0.154 A 
ATOM      4  C   UNL     1      25.915  39.442 -47.515  0.00  0.00    +0.211 A 
ATOM      5  C   UNL     1      24.794  40.167 -47.077  0.00  0.00    +0.283 A 
ATOM      6  N   UNL     1      23.529  39.669 -47.258  0.00  0.00    -0.293 N 
ATOM      7  O   UNL     1      24.941  41.251 -46.536  0.00  0.00    -0.265 OA
ATOM      8  H   UNL     1      22.706  40.222 -46.927  0.00  0.00    +0.172 HD
ATOM      9  N   UNL     1      22.028  37.965 -48.046  0.00  0.00    -0.329 N 
ATOM     10  H   UNL     1      21.288  38.568 -48.436  0.00  0.00    +0.145 HD
ATOM     11  H   UNL     1      21.798  36.993 -47.792  0.00  0.00    +0.145 HD
ENDROOT
BRANCH   3  12
ATOM     12  N   UNL     1      26.714  37.332 -48.620  0.00  0.00    -0.341 N 
ATOM     13  H   UNL     1      27.621  37.320 -48.129  0.00  0.00    +0.144 HD
ATOM     14  H   UNL     1      26.633  36.727 -49.442  0.00  0.00    +0.144 HD
ENDBRANCH   3  12
BRANCH   4  15
ATOM     15  N   UNL     1      27.198  40.028 -47.301  0.00  0.00    -0.022 NA
ATOM     16  O   UNL     1      28.190  39.675 -47.859  0.00  0.00    -0.143 OA
ENDBRANCH   4  15
TORSDOF 2
ENDMDL
MODEL       15
REMARK  Name = ./2N-ethanol_pose11.pdb
REMARK  9 active torsions:
REMARK  status: ('A' for Active; 'I' for Inactive)
REMARK    1  A    between atoms: C_1  and  C_2
REMARK    2  A    between atoms: C_1  and  C_18
REMARK    3  A    between atoms: C_2  and  N_3
REMARK    4  A    between atoms: N_3  and  C_5
REMARK    5  A    between atoms: C_10  and  N_16
REMARK    6  A    between atoms: C_18  and  O_19
REMARK    7  A    between atoms: O_19  and  C_20
REMARK    8  A    between atoms: C_25  and  C_26
REMARK    9  A    between atoms: C_26  and  O_28
REMARK                            x       y       z     vdW  Elec       q    Type
REMARK                         _______ _______ _______ _____ _____    ______ ____
ROOT
ATOM      1  N   UNL     1      21.872  37.020 -44.463  0.00  0.00    -0.317 N 
ATOM      2  H   UNL     1      21.361  37.621 -43.810  0.00  0.00    +0.148 HD
ENDROOT
BRANCH   1   3
ATOM      3  C   UNL     1      21.574  35.625 -44.589  0.00  0.00    +0.157 A 
ATOM      4  C   UNL     1      22.141  33.402 -43.938  0.00  0.00    +0.195 A 
ATOM      5  N   UNL     1      21.131  32.895 -44.687  0.00  0.00    -0.293 N 
ATOM      6  N   UNL     1      22.342  34.742 -43.896  0.00  0.00    -0.199 NA
ATOM      7  C   UNL     1      20.314  33.723 -45.411  0.00  0.00    +0.283 A 
ATOM      8  C   UNL     1      20.510  35.115 -45.395  0.00  0.00    +0.211 A 
ATOM      9  H   UNL     1      20.977  31.861 -44.718  0.00  0.00    +0.172 HD
ATOM     10  O   UNL     1      19.417  33.241 -46.084  0.00  0.00    -0.265 OA
ATOM     11  N   UNL     1      22.994  32.544 -43.207  0.00  0.00    -0.329 N 
ATOM     12  H   UNL     1      23.954  32.834 -42.971  0.00  0.00    +0.145 HD
ATOM     13  H   UNL     1      22.655  31.624 -42.889  0.00  0.00    +0.145 HD
BRANCH   8  14
ATOM     14  N   UNL     1      19.631  35.901 -46.200  0.00  0.00    -0.022 NA
ATOM     15  O   UNL     1      19.986  36.817 -46.874  0.00  0.00    -0.143 OA
ENDBRANCH   8  14
ENDBRANCH   1   3
BRANCH   1  16
ATOM     16  C   UNL     1      22.929  37.673 -45.218  0.00  0.00    +0.092 C 
BRANCH  16  17
ATOM     17  C   UNL     1      22.607  39.149 -45.523  0.00  0.00    +0.069 C 
BRANCH  17  18
ATOM     18  C   UNL     1      23.300  39.618 -46.800  0.00  0.00    +0.207 C 
BRANCH  18  19
ATOM     19  O   UNL     1      24.096  38.609 -47.306  0.00  0.00    -0.475 OA
BRANCH  19  20
ATOM     20  C   UNL     1      25.378  38.772 -47.725  0.00  0.00    +0.139 A 
ATOM     21  C   UNL     1      26.143  39.904 -47.386  0.00  0.00    +0.037 A 
ATOM     22  C   UNL     1      25.954  37.782 -48.529  0.00  0.00    +0.037 A 
ATOM     23  C   UNL     1      27.452  40.041 -47.849  0.00  0.00    +0.010 A 
ATOM     24  C   UNL     1      27.268  37.914 -48.986  0.00  0.00    +0.010 A 
ATOM     25  C   UNL     1      28.035  39.050 -48.660  0.00  0.00    +0.076 A 
BRANCH  25  26
ATOM     26  C   UNL     1      29.432  39.176 -49.172  0.00  0.00    +0.338 C 
ATOM     27  O   UNL     1      29.782  38.515 -50.137  0.00  0.00    -0.245 OA
BRANCH  26  28
ATOM     28  O   UNL     1      30.334  40.021 -48.619  0.00  0.00    -0.477 OA
ATOM     29  H   UNL     1      31.269  40.046 -48.856  0.00  0.00    +0.295 HD
ENDBRANCH  26  28
ENDBRANCH  25  26
ENDBRANCH  19  20
ENDBRANCH  18  19
ENDBRANCH  17  18
ENDBRANCH  16  17
ENDBRANCH   1  16
TORSDOF 9
ENDMDL
MODEL       16
REMARK  Name = ./2N-ethanol_pose11.pdb
REMARK  1 active torsions:
REMARK  status: ('A' for Active; 'I' for Inactive)
REMARK    1  A    between atoms: C_6  and  S_16
REMARK                            x       y       z     vdW  Elec       q    Type
REMARK                         _______ _______ _______ _____ _____    ______ ____
ROOT
ATOM      1  C   UNL     1      28.294  38.702 -48.964  0.00  0.00    +0.195 A 
ATOM      2  N   UNL     1      28.318  39.779 -48.108  0.00  0.00    -0.293 N 
ATOM      3  C   UNL     1      27.195  40.141 -47.389  0.00  0.00    +0.280 A 
ATOM      4  C   UNL     1      26.048  39.381 -47.561  0.00  0.00    +0.173 A 
ATOM      5  N   UNL     1      24.833  39.511 -46.996  0.00  0.00    -0.215 NA
ATOM      6  C   UNL     1      24.126  38.488 -47.548  0.00  0.00    +0.166 A 
ATOM      7  N   UNL     1      24.852  37.746 -48.418  0.00  0.00    -0.318 N 
ATOM      8  C   UNL     1      26.055  38.328 -48.410  0.00  0.00    +0.167 A 
ATOM      9  N   UNL     1      27.150  37.965 -49.117  0.00  0.00    -0.197 NA
ATOM     10  O   UNL     1      27.216  41.095 -46.631  0.00  0.00    -0.265 OA
ATOM     11  H   UNL     1      29.196  40.335 -47.998  0.00  0.00    +0.172 HD
ATOM     12  H   UNL     1      24.544  36.914 -48.969  0.00  0.00    +0.169 HD
ATOM     13  N   UNL     1      29.453  38.347 -49.693  0.00  0.00    -0.329 N 
ATOM     14  H   UNL     1      29.378  37.970 -50.648  0.00  0.00    +0.145 HD
ATOM     15  H   UNL     1      30.386  38.460 -49.271  0.00  0.00    +0.145 HD
ENDROOT
BRANCH   6  16
ATOM     16  S   UNL     1      22.407  38.151 -47.169  0.00  0.00    -0.105 S 
ATOM     17  H   UNL     1      22.448  38.839 -45.941  0.00  0.00    +0.110 HD
ENDBRANCH   6  16
TORSDOF 1
ENDMDL
MODEL       17
REMARK  Name = ./2N-ethanol_pose11.pdb
REMARK  17 active torsions:
REMARK  status: ('A' for Active; 'I' for Inactive)
REMARK    1  A    between atoms: C_1  and  C_2
REMARK    2  A    between atoms: C_1  and  O_26
REMARK    3  A    between atoms: C_1  and  C_28
REMARK    4  A    between atoms: C_2  and  C_3
REMARK    5  A    between atoms: C_3  and  C_4
REMARK    6  A    between atoms: C_8  and  C_16
REMARK    7  A    between atoms: C_9  and  C_19
REMARK    8  A    between atoms: N_10  and  C_11
REMARK    9  A    between atoms: N_10  and  S_12
REMARK   10  A    between atoms: S_12  and  C_15
REMARK   11  A    between atoms: C_16  and  C_17
REMARK   12  A    between atoms: C_16  and  C_18
REMARK   13  A    between atoms: C_28  and  C_29
REMARK   14  A    between atoms: C_29  and  O_30
REMARK   15  A    between atoms: C_29  and  C_32
REMARK   16  A    between atoms: C_32  and  C_33
REMARK   17  A    between atoms: C_33  and  O_35
REMARK                            x       y       z     vdW  Elec       q    Type
REMARK                         _______ _______ _______ _____ _____    ______ ____
ROOT
ATOM      1  C   UNL     1      24.337  39.259 -46.483  0.00  0.00    +0.009 A 
ATOM      2  C   UNL     1      22.201  37.515 -46.209  0.00  0.00    +0.239 A 
ATOM      3  N   UNL     1      23.246  37.201 -47.012  0.00  0.00    -0.217 NA
ATOM      4  N   UNL     1      22.222  38.678 -45.511  0.00  0.00    -0.213 NA
ATOM      5  C   UNL     1      24.329  38.009 -47.138  0.00  0.00    +0.059 A 
ATOM      6  C   UNL     1      23.230  39.583 -45.658  0.00  0.00    +0.081 A 
ATOM      7  N   UNL     1      21.087  36.634 -46.111  0.00  0.00    -0.160 N 
ATOM      8  C   UNL     1      20.370  36.296 -47.323  0.00  0.00    +0.142 C 
ENDROOT
BRANCH   6   9
ATOM      9  C   UNL     1      23.120  40.882 -44.946  0.00  0.00    +0.018 A 
ATOM     10  C   UNL     1      22.244  41.025 -43.858  0.00  0.00    +0.004 A 
ATOM     11  C   UNL     1      23.861  42.001 -45.377  0.00  0.00    +0.004 A 
ATOM     12  C   UNL     1      22.138  42.253 -43.195  0.00  0.00    +0.030 A 
ATOM     13  C   UNL     1      23.732  43.230 -44.730  0.00  0.00    +0.030 A 
ATOM     14  C   UNL     1      22.879  43.354 -43.634  0.00  0.00    +0.140 A 
ATOM     15  F   UNL     1      22.763  44.546 -43.000  0.00  0.00    -0.204 F 
ENDBRANCH   6   9
BRANCH   7  16
ATOM     16  S   UNL     1      21.166  35.370 -44.894  0.00  0.00    +0.061 S 
ATOM     17  O   UNL     1      22.648  35.297 -44.500  0.00  0.00    -0.154 OA
ATOM     18  O   UNL     1      20.944  34.042 -45.635  0.00  0.00    -0.154 OA
ATOM     19  C   UNL     1      20.044  35.659 -43.498  0.00  0.00    +0.200 C 
ENDBRANCH   7  16
BRANCH   5  20
ATOM     20  C   UNL     1      25.502  37.491 -47.955  0.00  0.00    +0.040 C 
ATOM     21  C   UNL     1      25.082  37.223 -49.402  0.00  0.00    +0.006 C 
ATOM     22  C   UNL     1      26.040  36.208 -47.305  0.00  0.00    +0.006 C 
ENDBRANCH   5  20
BRANCH   1  23
ATOM     23  C   UNL     1      25.502  40.176 -46.558  0.00  0.00    +0.032 C 
BRANCH  23  24
ATOM     24  C   UNL     1      26.042  40.499 -47.745  0.00  0.00    +0.034 C 
BRANCH  24  25
ATOM     25  C   UNL     1      27.495  40.227 -48.079  0.00  0.00    +0.113 C 
BRANCH  25  26
ATOM     26  O   UNL     1      28.053  39.336 -47.146  0.00  0.00    -0.384 OA
ATOM     27  H   UNL     1      28.418  39.884 -46.404  0.00  0.00    +0.210 HD
ENDBRANCH  25  26
BRANCH  25  28
ATOM     28  C   UNL     1      27.658  39.649 -49.501  0.00  0.00    +0.059 C 
BRANCH  28  29
ATOM     29  C   UNL     1      29.097  39.156 -49.781  0.00  0.00    +0.124 C 
BRANCH  29  30
ATOM     30  O   UNL     1      29.154  37.763 -49.586  0.00  0.00    -0.384 OA
ATOM     31  H   UNL     1      29.682  37.374 -50.329  0.00  0.00    +0.210 HD
ENDBRANCH  29  30
BRANCH  29  32
ATOM     32  C   UNL     1      29.528  39.503 -51.222  0.00  0.00    +0.139 C 
BRANCH  32  33
ATOM     33  C   UNL     1      30.162  40.867 -51.359  0.00  0.00    +0.316 C 
ATOM     34  O   UNL     1      30.994  41.266 -50.557  0.00  0.00    -0.250 OA
BRANCH  33  35
ATOM     35  O   UNL     1      29.763  41.676 -52.363  0.00  0.00    -0.480 OA
ATOM     36  H   UNL     1      30.354  42.347 -52.734  0.00  0.00    +0.295 HD
ENDBRANCH  33  35
ENDBRANCH  32  33
ENDBRANCH  29  32
ENDBRANCH  28  29
ENDBRANCH  25  28
ENDBRANCH  24  25
ENDBRANCH  23  24
ENDBRANCH   1  23
TORSDOF 13
ENDMDL
MODEL       18
REMARK  Name = ./2N-ethanol_pose11.pdb
REMARK  16 active torsions:
REMARK  status: ('A' for Active; 'I' for Inactive)
REMARK    1  A    between atoms: C_2  and  C_11
REMARK    2  A    between atoms: C_2  and  C_12
REMARK    3  A    between atoms: C_5  and  C_27
REMARK    4  A    between atoms: C_6  and  O_23
REMARK    5  A    between atoms: C_8  and  C_13
REMARK    6  A    between atoms: C_9  and  O_25
REMARK    7  A    between atoms: C_13  and  C_15
REMARK    8  A    between atoms: C_15  and  C_16
REMARK    9  A    between atoms: C_16  and  C_17
REMARK   10  A    between atoms: C_27  and  C_28
REMARK   11  A    between atoms: C_29  and  O_35
REMARK   12  A    between atoms: C_30  and  O_37
REMARK   13  A    between atoms: C_31  and  C_34
REMARK   14  A    between atoms: C_32  and  C_39
REMARK   15  A    between atoms: C_33  and  O_42
REMARK   16  A    between atoms: C_39  and  C_41
REMARK                            x       y       z     vdW  Elec       q    Type
REMARK                         _______ _______ _______ _____ _____    ______ ____
ROOT
ATOM      1  O   UNL     1      24.266  40.898 -45.321  0.00  0.00    -0.478 OA
ATOM      2  C   UNL     1      23.850  41.722 -44.277  0.00  0.00    +0.152 C 
ATOM      3  C   UNL     1      23.505  39.997 -45.999  0.00  0.00    +0.147 A 
ATOM      4  C   UNL     1      22.160  39.840 -45.673  0.00  0.00    +0.067 A 
ATOM      5  C   UNL     1      21.907  38.140 -47.425  0.00  0.00    +0.050 A 
ATOM      6  C   UNL     1      21.359  38.921 -46.365  0.00  0.00    +0.136 A 
ATOM      7  C   UNL     1      22.385  41.528 -43.925  0.00  0.00    +0.013 C 
ATOM      8  C   UNL     1      24.069  39.234 -47.033  0.00  0.00    +0.102 A 
ATOM      9  C   UNL     1      23.274  38.302 -47.750  0.00  0.00    +0.138 A 
ATOM     10  C   UNL     1      21.610  40.656 -44.574  0.00  0.00    +0.005 C 
ATOM     11  C   UNL     1      24.702  41.400 -43.045  0.00  0.00    +0.048 C 
ATOM     12  C   UNL     1      24.064  43.182 -44.696  0.00  0.00    +0.048 C 
ENDROOT
BRANCH   8  13
ATOM     13  C   UNL     1      25.495  39.458 -47.352  0.00  0.00    +0.179 C 
ATOM     14  O   UNL     1      25.896  40.596 -47.554  0.00  0.00    -0.291 OA
BRANCH  13  15
ATOM     15  C   UNL     1      26.359  38.287 -47.633  0.00  0.00    +0.074 C 
BRANCH  15  16
ATOM     16  C   UNL     1      26.925  38.088 -48.838  0.00  0.00    +0.034 C 
BRANCH  16  17
ATOM     17  C   UNL     1      28.131  38.807 -49.337  0.00  0.00    -0.022 A 
ATOM     18  C   UNL     1      29.158  39.278 -48.490  0.00  0.00    -0.004 A 
ATOM     19  C   UNL     1      28.257  39.006 -50.724  0.00  0.00    -0.004 A 
ATOM     20  C   UNL     1      30.276  39.926 -49.026  0.00  0.00    -0.000 A 
ATOM     21  C   UNL     1      29.379  39.651 -51.253  0.00  0.00    -0.000 A 
ATOM     22  C   UNL     1      30.388  40.110 -50.405  0.00  0.00    -0.000 A 
ENDBRANCH  16  17
ENDBRANCH  15  16
ENDBRANCH  13  15
ENDBRANCH   8  13
BRANCH   6  23
ATOM     23  O   UNL     1      20.078  38.795 -45.963  0.00  0.00    -0.506 OA
ATOM     24  H   UNL     1      19.319  39.087 -46.468  0.00  0.00    +0.292 HD
ENDBRANCH   6  23
BRANCH   9  25
ATOM     25  O   UNL     1      23.823  37.559 -48.741  0.00  0.00    -0.506 OA
ATOM     26  H   UNL     1      23.428  37.466 -49.619  0.00  0.00    +0.292 HD
ENDBRANCH   9  25
BRANCH   5  27
ATOM     27  C   UNL     1      21.048  37.131 -48.187  0.00  0.00    +0.065 C 
BRANCH  27  28
ATOM     28  C   UNL     1      20.811  35.847 -47.394  0.00  0.00    +0.050 A 
ATOM     29  C   UNL     1      20.133  34.745 -47.962  0.00  0.00    +0.132 A 
ATOM     30  C   UNL     1      21.245  35.776 -46.052  0.00  0.00    +0.138 A 
ATOM     31  C   UNL     1      19.946  33.551 -47.218  0.00  0.00    +0.045 A 
ATOM     32  C   UNL     1      20.999  34.616 -45.289  0.00  0.00    +0.102 A 
ATOM     33  C   UNL     1      20.369  33.503 -45.864  0.00  0.00    +0.138 A 
ATOM     34  C   UNL     1      19.311  32.359 -47.906  0.00  0.00    +0.037 C 
BRANCH  32  35
ATOM     35  C   UNL     1      21.370  34.553 -43.857  0.00  0.00    +0.179 C 
ATOM     36  O   UNL     1      20.678  35.139 -43.038  0.00  0.00    -0.291 OA
ATOM     37  C   UNL     1      22.522  33.728 -43.383  0.00  0.00    +0.077 C 
ENDBRANCH  32  35
BRANCH  29  38
ATOM     38  O   UNL     1      19.670  34.849 -49.230  0.00  0.00    -0.506 OA
ATOM     39  H   UNL     1      19.869  34.233 -49.947  0.00  0.00    +0.292 HD
ENDBRANCH  29  38
BRANCH  30  40
ATOM     40  O   UNL     1      21.852  36.850 -45.498  0.00  0.00    -0.506 OA
ATOM     41  H   UNL     1      21.670  37.764 -45.750  0.00  0.00    +0.292 HD
ENDBRANCH  30  40
BRANCH  33  42
ATOM     42  O   UNL     1      20.187  32.416 -45.075  0.00  0.00    -0.506 OA
ATOM     43  H   UNL     1      19.751  31.595 -45.320  0.00  0.00    +0.292 HD
ENDBRANCH  33  42
ENDBRANCH  27  28
ENDBRANCH   5  27
TORSDOF 12
ENDMDL
MODEL       19
REMARK  Name = ./2N-ethanol_pose11.pdb
REMARK  17 active torsions:
REMARK  status: ('A' for Active; 'I' for Inactive)
REMARK    1  A    between atoms: C_1  and  C_2
REMARK    2  A    between atoms: C_1  and  O_26
REMARK    3  A    between atoms: C_1  and  C_28
REMARK    4  A    between atoms: C_2  and  C_3
REMARK    5  A    between atoms: C_3  and  C_4
REMARK    6  A    between atoms: C_8  and  C_16
REMARK    7  A    between atoms: C_9  and  C_19
REMARK    8  A    between atoms: N_10  and  C_11
REMARK    9  A    between atoms: N_10  and  S_12
REMARK   10  A    between atoms: S_12  and  C_15
REMARK   11  A    between atoms: C_16  and  C_17
REMARK   12  A    between atoms: C_16  and  C_18
REMARK   13  A    between atoms: C_28  and  C_29
REMARK   14  A    between atoms: C_29  and  O_30
REMARK   15  A    between atoms: C_29  and  C_32
REMARK   16  A    between atoms: C_32  and  C_33
REMARK   17  A    between atoms: C_33  and  O_35
REMARK                            x       y       z     vdW  Elec       q    Type
REMARK                         _______ _______ _______ _____ _____    ______ ____
ROOT
ATOM      1  C   UNL     1      21.943  38.685 -46.517  0.00  0.00    +0.009 A 
ATOM      2  C   UNL     1      21.434  36.627 -44.732  0.00  0.00    +0.239 A 
ATOM      3  N   UNL     1      21.135  36.486 -46.046  0.00  0.00    -0.217 NA
ATOM      4  N   UNL     1      22.016  37.773 -44.299  0.00  0.00    -0.213 NA
ATOM      5  C   UNL     1      21.409  37.454 -46.957  0.00  0.00    +0.059 A 
ATOM      6  C   UNL     1      22.236  38.825 -45.137  0.00  0.00    +0.081 A 
ATOM      7  N   UNL     1      21.126  35.583 -43.815  0.00  0.00    -0.160 N 
ATOM      8  C   UNL     1      19.937  35.714 -42.999  0.00  0.00    +0.142 C 
ENDROOT
BRANCH   6   9
ATOM      9  C   UNL     1      22.771  40.085 -44.560  0.00  0.00    +0.018 A 
ATOM     10  C   UNL     1      22.013  40.822 -43.637  0.00  0.00    +0.004 A 
ATOM     11  C   UNL     1      24.028  40.580 -44.961  0.00  0.00    +0.004 A 
ATOM     12  C   UNL     1      22.518  42.013 -43.101  0.00  0.00    +0.030 A 
ATOM     13  C   UNL     1      24.516  41.781 -44.444  0.00  0.00    +0.030 A 
ATOM     14  C   UNL     1      23.767  42.492 -43.508  0.00  0.00    +0.140 A 
ATOM     15  F   UNL     1      24.247  43.653 -42.999  0.00  0.00    -0.204 F 
ENDBRANCH   6   9
BRANCH   7  16
ATOM     16  S   UNL     1      21.548  33.945 -44.289  0.00  0.00    +0.061 S 
ATOM     17  O   UNL     1      23.072  33.972 -44.476  0.00  0.00    -0.154 OA
ATOM     18  O   UNL     1      21.032  33.763 -45.725  0.00  0.00    -0.154 OA
ATOM     19  C   UNL     1      20.971  32.694 -43.110  0.00  0.00    +0.200 C 
ENDBRANCH   7  16
BRANCH   5  20
ATOM     20  C   UNL     1      21.160  37.133 -48.422  0.00  0.00    +0.040 C 
ATOM     21  C   UNL     1      21.073  38.413 -49.254  0.00  0.00    +0.006 C 
ATOM     22  C   UNL     1      19.861  36.322 -48.545  0.00  0.00    +0.006 C 
ENDBRANCH   5  20
BRANCH   1  23
ATOM     23  C   UNL     1      22.290  39.772 -47.466  0.00  0.00    +0.032 C 
BRANCH  23  24
ATOM     24  C   UNL     1      23.432  39.726 -48.171  0.00  0.00    +0.034 C 
BRANCH  24  25
ATOM     25  C   UNL     1      24.641  38.936 -47.712  0.00  0.00    +0.113 C 
BRANCH  25  26
ATOM     26  O   UNL     1      24.666  37.676 -48.333  0.00  0.00    -0.384 OA
ATOM     27  H   UNL     1      24.468  37.003 -47.632  0.00  0.00    +0.210 HD
ENDBRANCH  25  26
BRANCH  25  28
ATOM     28  C   UNL     1      25.960  39.682 -48.011  0.00  0.00    +0.059 C 
BRANCH  28  29
ATOM     29  C   UNL     1      27.202  38.770 -47.872  0.00  0.00    +0.124 C 
BRANCH  29  30
ATOM     30  O   UNL     1      27.100  37.708 -48.790  0.00  0.00    -0.384 OA
ATOM     31  H   UNL     1      27.115  38.094 -49.703  0.00  0.00    +0.210 HD
ENDBRANCH  29  30
BRANCH  29  32
ATOM     32  C   UNL     1      28.499  39.565 -48.129  0.00  0.00    +0.139 C 
BRANCH  32  33
ATOM     33  C   UNL     1      29.202  39.191 -49.413  0.00  0.00    +0.316 C 
ATOM     34  O   UNL     1      29.539  38.038 -49.642  0.00  0.00    -0.250 OA
BRANCH  33  35
ATOM     35  O   UNL     1      29.502  40.162 -50.300  0.00  0.00    -0.480 OA
ATOM     36  H   UNL     1      29.175  41.065 -50.187  0.00  0.00    +0.295 HD
ENDBRANCH  33  35
ENDBRANCH  32  33
ENDBRANCH  29  32
ENDBRANCH  28  29
ENDBRANCH  25  28
ENDBRANCH  24  25
ENDBRANCH  23  24
ENDBRANCH   1  23
TORSDOF 13
ENDMDL
