REMARK  Name = ./CoB9_pose1.pdb
REMARK  18 active torsions:
REMARK  status: ('A' for Active; 'I' for Inactive)
REMARK    1  A    between atoms: C_1  and  C_2
REMARK    2  A    between atoms: C_1  and  C_21
REMARK    3  A    between atoms: C_2  and  C_3
REMARK    4  A    between atoms: N_4  and  C_7
REMARK    5  A    between atoms: C_7  and  C_8
REMARK    6  A    between atoms: C_7  and  C_17
REMARK    7  A    between atoms: C_8  and  C_9
REMARK    8  A    between atoms: C_8  and  O_10
REMARK    9  A    between atoms: O_10  and  P_11
REMARK   10  A    between atoms: P_11  and  O_13
REMARK   11  A    between atoms: P_11  and  O_15
REMARK   12  A    between atoms: C_17  and  O_19
REMARK   13  A    between atoms: C_21  and  C_22
REMARK   14  A    between atoms: C_22  and  C_23
REMARK   15  A    between atoms: C_23  and  C_24
REMARK   16  A    between atoms: C_24  and  C_25
REMARK   17  A    between atoms: C_25  and  C_26
REMARK   18  A    between atoms: C_26  and  S_27
REMARK                            x       y       z     vdW  Elec       q    Type
REMARK                         _______ _______ _______ _____ _____    ______ ____
ROOT
ATOM      1  C   UNL     1      26.450  38.518 -48.285  0.00  0.00    +0.223 C 
ATOM      2  N   UNL     1      25.186  38.020 -48.135  0.00  0.00    -0.295 N 
ATOM      3  H   UNL     1      24.823  37.327 -48.805  0.00  0.00    +0.150 HD
ATOM      4  O   UNL     1      26.874  39.355 -47.500  0.00  0.00    -0.275 OA
ENDROOT
BRANCH   1   5
ATOM      5  C   UNL     1      27.389  38.062 -49.387  0.00  0.00    +0.085 C 
BRANCH   5   6
ATOM      6  C   UNL     1      28.588  38.991 -49.662  0.00  0.00    +0.010 C 
BRANCH   6   7
ATOM      7  C   UNL     1      28.525  39.687 -51.034  0.00  0.00    +0.001 C 
BRANCH   7   8
ATOM      8  C   UNL     1      29.802  39.484 -51.866  0.00  0.00    +0.000 C 
BRANCH   8   9
ATOM      9  C   UNL     1      30.467  40.821 -52.210  0.00  0.00    +0.000 C 
BRANCH   9  10
ATOM     10  C   UNL     1      31.539  40.623 -53.289  0.00  0.00    +0.001 C 
BRANCH  10  11
ATOM     11  C   UNL     1      31.029  39.730 -54.423  0.00  0.00    +0.011 C 
BRANCH  11  12
ATOM     12  C   UNL     1      32.157  39.389 -55.396  0.00  0.00    +0.053 C 
BRANCH  12  13
ATOM     13  S   UNL     1      31.480  38.785 -56.973  0.00  0.00    -0.168 S 
ATOM     14  H   UNL     1      31.193  40.083 -57.438  0.00  0.00    +0.102 HD
ENDBRANCH  12  13
ENDBRANCH  11  12
ENDBRANCH  10  11
ENDBRANCH   9  10
ENDBRANCH   8   9
ENDBRANCH   7   8
ENDBRANCH   6   7
ENDBRANCH   5   6
ENDBRANCH   1   5
BRANCH   2  15
ATOM     15  C   UNL     1      24.299  38.398 -47.043  0.00  0.00    +0.199 C 
BRANCH  15  16
ATOM     16  C   UNL     1      22.854  38.579 -47.573  0.00  0.00    +0.155 C 
ATOM     17  C   UNL     1      22.687  39.828 -48.468  0.00  0.00    +0.035 C 
BRANCH  16  18
ATOM     18  O   UNL     1      22.355  37.374 -48.147  0.00  0.00    -0.274 OA
BRANCH  18  19
ATOM     19  P   UNL     1      20.843  36.813 -47.444  0.00  0.00    +0.473 P 
ATOM     20  O   UNL     1      20.068  38.090 -47.022  0.00  0.00    -0.227 OA
BRANCH  19  21
ATOM     21  O   UNL     1      19.837  35.995 -48.602  0.00  0.00    -0.303 OA
ATOM     22  H   UNL     1      20.330  36.050 -49.459  0.00  0.00    +0.222 HD
ENDBRANCH  19  21
BRANCH  19  23
ATOM     23  O   UNL     1      21.041  35.884 -45.992  0.00  0.00    -0.303 OA
ATOM     24  H   UNL     1      20.172  35.963 -45.521  0.00  0.00    +0.222 HD
ENDBRANCH  19  23
ENDBRANCH  18  19
ENDBRANCH  16  18
ENDBRANCH  15  16
BRANCH  15  25
ATOM     25  C   UNL     1      24.367  37.321 -45.981  0.00  0.00    +0.334 C 
ATOM     26  O   UNL     1      23.563  37.319 -45.061  0.00  0.00    -0.248 OA
BRANCH  25  27
ATOM     27  O   UNL     1      25.307  36.353 -46.033  0.00  0.00    -0.479 OA
ATOM     28  H   UNL     1      25.093  35.422 -45.882  0.00  0.00    +0.295 HD
ENDBRANCH  25  27
ENDBRANCH  15  25
ENDBRANCH   2  15
TORSDOF 17
