REMARK  Name = ./Pterin53_pose14.pdb
REMARK  2 active torsions:
REMARK  status: ('A' for Active; 'I' for Inactive)
REMARK    1  A    between atoms: C_3  and  N_12
REMARK    2  A    between atoms: C_4  and  N_15
REMARK                            x       y       z     vdW  Elec       q    Type
REMARK                         _______ _______ _______ _____ _____    ______ ____
ROOT
ATOM      1  C   UNL     1      23.335  38.469 -47.860  0.00  0.00    +0.195 A 
ATOM      2  N   UNL     1      24.401  37.749 -48.287  0.00  0.00    -0.199 NA
ATOM      3  C   UNL     1      25.682  38.182 -48.140  0.00  0.00    +0.154 A 
ATOM      4  C   UNL     1      25.915  39.442 -47.515  0.00  0.00    +0.211 A 
ATOM      5  C   UNL     1      24.794  40.167 -47.077  0.00  0.00    +0.283 A 
ATOM      6  N   UNL     1      23.529  39.669 -47.258  0.00  0.00    -0.293 N 
ATOM      7  O   UNL     1      24.941  41.251 -46.536  0.00  0.00    -0.265 OA
ATOM      8  H   UNL     1      22.706  40.222 -46.927  0.00  0.00    +0.172 HD
ATOM      9  N   UNL     1      22.028  37.965 -48.046  0.00  0.00    -0.329 N 
ATOM     10  H   UNL     1      21.288  38.568 -48.436  0.00  0.00    +0.145 HD
ATOM     11  H   UNL     1      21.798  36.993 -47.792  0.00  0.00    +0.145 HD
ENDROOT
BRANCH   3  12
ATOM     12  N   UNL     1      26.714  37.332 -48.620  0.00  0.00    -0.341 N 
ATOM     13  H   UNL     1      27.621  37.320 -48.129  0.00  0.00    +0.144 HD
ATOM     14  H   UNL     1      26.633  36.727 -49.442  0.00  0.00    +0.144 HD
ENDBRANCH   3  12
BRANCH   4  15
ATOM     15  N   UNL     1      27.198  40.028 -47.301  0.00  0.00    -0.022 NA
ATOM     16  O   UNL     1      28.190  39.675 -47.859  0.00  0.00    -0.143 OA
ENDBRANCH   4  15
TORSDOF 2
