REMARK  Name = ./Sim_pose1.pdb
REMARK  17 active torsions:
REMARK  status: ('A' for Active; 'I' for Inactive)
REMARK    1  A    between atoms: C_1  and  C_2
REMARK    2  A    between atoms: C_1  and  O_26
REMARK    3  A    between atoms: C_1  and  C_28
REMARK    4  A    between atoms: C_2  and  C_3
REMARK    5  A    between atoms: C_3  and  C_4
REMARK    6  A    between atoms: C_8  and  C_16
REMARK    7  A    between atoms: C_9  and  C_19
REMARK    8  A    between atoms: N_10  and  C_11
REMARK    9  A    between atoms: N_10  and  S_12
REMARK   10  A    between atoms: S_12  and  C_15
REMARK   11  A    between atoms: C_16  and  C_17
REMARK   12  A    between atoms: C_16  and  C_18
REMARK   13  A    between atoms: C_28  and  C_29
REMARK   14  A    between atoms: C_29  and  O_30
REMARK   15  A    between atoms: C_29  and  C_32
REMARK   16  A    between atoms: C_32  and  C_33
REMARK   17  A    between atoms: C_33  and  O_35
REMARK                            x       y       z     vdW  Elec       q    Type
REMARK                         _______ _______ _______ _____ _____    ______ ____
ROOT
ATOM      1  C   UNL     1      21.943  38.685 -46.517  0.00  0.00    +0.009 A 
ATOM      2  C   UNL     1      21.434  36.627 -44.732  0.00  0.00    +0.239 A 
ATOM      3  N   UNL     1      21.135  36.486 -46.046  0.00  0.00    -0.217 NA
ATOM      4  N   UNL     1      22.016  37.773 -44.299  0.00  0.00    -0.213 NA
ATOM      5  C   UNL     1      21.409  37.454 -46.957  0.00  0.00    +0.059 A 
ATOM      6  C   UNL     1      22.236  38.825 -45.137  0.00  0.00    +0.081 A 
ATOM      7  N   UNL     1      21.126  35.583 -43.815  0.00  0.00    -0.160 N 
ATOM      8  C   UNL     1      19.937  35.714 -42.999  0.00  0.00    +0.142 C 
ENDROOT
BRANCH   6   9
ATOM      9  C   UNL     1      22.771  40.085 -44.560  0.00  0.00    +0.018 A 
ATOM     10  C   UNL     1      22.013  40.822 -43.637  0.00  0.00    +0.004 A 
ATOM     11  C   UNL     1      24.028  40.580 -44.961  0.00  0.00    +0.004 A 
ATOM     12  C   UNL     1      22.518  42.013 -43.101  0.00  0.00    +0.030 A 
ATOM     13  C   UNL     1      24.516  41.781 -44.444  0.00  0.00    +0.030 A 
ATOM     14  C   UNL     1      23.767  42.492 -43.508  0.00  0.00    +0.140 A 
ATOM     15  F   UNL     1      24.247  43.653 -42.999  0.00  0.00    -0.204 F 
ENDBRANCH   6   9
BRANCH   7  16
ATOM     16  S   UNL     1      21.548  33.945 -44.289  0.00  0.00    +0.061 S 
ATOM     17  O   UNL     1      23.072  33.972 -44.476  0.00  0.00    -0.154 OA
ATOM     18  O   UNL     1      21.032  33.763 -45.725  0.00  0.00    -0.154 OA
ATOM     19  C   UNL     1      20.971  32.694 -43.110  0.00  0.00    +0.200 C 
ENDBRANCH   7  16
BRANCH   5  20
ATOM     20  C   UNL     1      21.160  37.133 -48.422  0.00  0.00    +0.040 C 
ATOM     21  C   UNL     1      21.073  38.413 -49.254  0.00  0.00    +0.006 C 
ATOM     22  C   UNL     1      19.861  36.322 -48.545  0.00  0.00    +0.006 C 
ENDBRANCH   5  20
BRANCH   1  23
ATOM     23  C   UNL     1      22.290  39.772 -47.466  0.00  0.00    +0.032 C 
BRANCH  23  24
ATOM     24  C   UNL     1      23.432  39.726 -48.171  0.00  0.00    +0.034 C 
BRANCH  24  25
ATOM     25  C   UNL     1      24.641  38.936 -47.712  0.00  0.00    +0.113 C 
BRANCH  25  26
ATOM     26  O   UNL     1      24.666  37.676 -48.333  0.00  0.00    -0.384 OA
ATOM     27  H   UNL     1      24.468  37.003 -47.632  0.00  0.00    +0.210 HD
ENDBRANCH  25  26
BRANCH  25  28
ATOM     28  C   UNL     1      25.960  39.682 -48.011  0.00  0.00    +0.059 C 
BRANCH  28  29
ATOM     29  C   UNL     1      27.202  38.770 -47.872  0.00  0.00    +0.124 C 
BRANCH  29  30
ATOM     30  O   UNL     1      27.100  37.708 -48.790  0.00  0.00    -0.384 OA
ATOM     31  H   UNL     1      27.115  38.094 -49.703  0.00  0.00    +0.210 HD
ENDBRANCH  29  30
BRANCH  29  32
ATOM     32  C   UNL     1      28.499  39.565 -48.129  0.00  0.00    +0.139 C 
BRANCH  32  33
ATOM     33  C   UNL     1      29.202  39.191 -49.413  0.00  0.00    +0.316 C 
ATOM     34  O   UNL     1      29.539  38.038 -49.642  0.00  0.00    -0.250 OA
BRANCH  33  35
ATOM     35  O   UNL     1      29.502  40.162 -50.300  0.00  0.00    -0.480 OA
ATOM     36  H   UNL     1      29.175  41.065 -50.187  0.00  0.00    +0.295 HD
ENDBRANCH  33  35
ENDBRANCH  32  33
ENDBRANCH  29  32
ENDBRANCH  28  29
ENDBRANCH  25  28
ENDBRANCH  24  25
ENDBRANCH  23  24
ENDBRANCH   1  23
TORSDOF 13
