REMARK  Name = ./CoM_pose17.pdb
REMARK  6 active torsions:
REMARK  status: ('A' for Active; 'I' for Inactive)
REMARK    1  A    between atoms: C_1  and  S_2
REMARK    2  A    between atoms: C_1  and  C_7
REMARK    3  A    between atoms: S_2  and  O_3
REMARK    4  A    between atoms: S_2  and  O_4
REMARK    5  A    between atoms: S_2  and  O_5
REMARK    6  A    between atoms: C_7  and  S_8
REMARK                            x       y       z     vdW  Elec       q    Type
REMARK                         _______ _______ _______ _____ _____    ______ ____
ROOT
ATOM      1  S   UNL     1      28.569  38.867 -49.343  0.00  0.00    -0.009 S 
ENDROOT
BRANCH   1   2
ATOM      2  O   UNL     1      29.920  39.079 -48.857  0.00  0.00    -0.072 OA
ATOM      3  H   UNL     1      30.524  38.463 -49.300  0.00  0.00    +0.000 HD
ENDBRANCH   1   2
BRANCH   1   4
ATOM      4  O   UNL     1      27.958  37.551 -49.339  0.00  0.00    -0.072 OA
ATOM      5  H   UNL     1      28.544  36.921 -49.786  0.00  0.00    +0.000 HD
ENDBRANCH   1   4
BRANCH   1   6
ATOM      6  O   UNL     1      27.569  39.911 -48.587  0.00  0.00    -0.271 OA
ATOM      7  H   UNL     1      26.945  39.506 -47.940  0.00  0.00    +0.243 HD
ENDBRANCH   1   6
BRANCH   1   8
ATOM      8  C   UNL     1      28.431  39.552 -50.965  0.00  0.00    +0.166 C 
BRANCH   8   9
ATOM      9  C   UNL     1      29.763  39.502 -51.690  0.00  0.00    +0.079 C 
BRANCH   9  10
ATOM     10  S   UNL     1      30.327  41.178 -52.096  0.00  0.00    -0.166 S 
ATOM     11  H   UNL     1      31.116  41.341 -51.025  0.00  0.00    +0.102 HD
ENDBRANCH   9  10
ENDBRANCH   8   9
ENDBRANCH   1   8
TORSDOF 6
