REMARK  Name = ./Pterin54_pose1.pdb
REMARK  9 active torsions:
REMARK  status: ('A' for Active; 'I' for Inactive)
REMARK    1  A    between atoms: C_1  and  C_2
REMARK    2  A    between atoms: C_1  and  C_18
REMARK    3  A    between atoms: C_2  and  N_3
REMARK    4  A    between atoms: N_3  and  C_5
REMARK    5  A    between atoms: C_10  and  N_16
REMARK    6  A    between atoms: C_18  and  O_19
REMARK    7  A    between atoms: O_19  and  C_20
REMARK    8  A    between atoms: C_25  and  C_26
REMARK    9  A    between atoms: C_26  and  O_28
REMARK                            x       y       z     vdW  Elec       q    Type
REMARK                         _______ _______ _______ _____ _____    ______ ____
ROOT
ATOM      1  N   UNL     1      21.872  37.020 -44.463  0.00  0.00    -0.317 N 
ATOM      2  H   UNL     1      21.361  37.621 -43.810  0.00  0.00    +0.148 HD
ENDROOT
BRANCH   1   3
ATOM      3  C   UNL     1      21.574  35.625 -44.589  0.00  0.00    +0.157 A 
ATOM      4  C   UNL     1      22.141  33.402 -43.938  0.00  0.00    +0.195 A 
ATOM      5  N   UNL     1      21.131  32.895 -44.687  0.00  0.00    -0.293 N 
ATOM      6  N   UNL     1      22.342  34.742 -43.896  0.00  0.00    -0.199 NA
ATOM      7  C   UNL     1      20.314  33.723 -45.411  0.00  0.00    +0.283 A 
ATOM      8  C   UNL     1      20.510  35.115 -45.395  0.00  0.00    +0.211 A 
ATOM      9  H   UNL     1      20.977  31.861 -44.718  0.00  0.00    +0.172 HD
ATOM     10  O   UNL     1      19.417  33.241 -46.084  0.00  0.00    -0.265 OA
ATOM     11  N   UNL     1      22.994  32.544 -43.207  0.00  0.00    -0.329 N 
ATOM     12  H   UNL     1      23.954  32.834 -42.971  0.00  0.00    +0.145 HD
ATOM     13  H   UNL     1      22.655  31.624 -42.889  0.00  0.00    +0.145 HD
BRANCH   8  14
ATOM     14  N   UNL     1      19.631  35.901 -46.200  0.00  0.00    -0.022 NA
ATOM     15  O   UNL     1      19.986  36.817 -46.874  0.00  0.00    -0.143 OA
ENDBRANCH   8  14
ENDBRANCH   1   3
BRANCH   1  16
ATOM     16  C   UNL     1      22.929  37.673 -45.218  0.00  0.00    +0.092 C 
BRANCH  16  17
ATOM     17  C   UNL     1      22.607  39.149 -45.523  0.00  0.00    +0.069 C 
BRANCH  17  18
ATOM     18  C   UNL     1      23.300  39.618 -46.800  0.00  0.00    +0.207 C 
BRANCH  18  19
ATOM     19  O   UNL     1      24.096  38.609 -47.306  0.00  0.00    -0.475 OA
BRANCH  19  20
ATOM     20  C   UNL     1      25.378  38.772 -47.725  0.00  0.00    +0.139 A 
ATOM     21  C   UNL     1      26.143  39.904 -47.386  0.00  0.00    +0.037 A 
ATOM     22  C   UNL     1      25.954  37.782 -48.529  0.00  0.00    +0.037 A 
ATOM     23  C   UNL     1      27.452  40.041 -47.849  0.00  0.00    +0.010 A 
ATOM     24  C   UNL     1      27.268  37.914 -48.986  0.00  0.00    +0.010 A 
ATOM     25  C   UNL     1      28.035  39.050 -48.660  0.00  0.00    +0.076 A 
BRANCH  25  26
ATOM     26  C   UNL     1      29.432  39.176 -49.172  0.00  0.00    +0.338 C 
ATOM     27  O   UNL     1      29.782  38.515 -50.137  0.00  0.00    -0.245 OA
BRANCH  26  28
ATOM     28  O   UNL     1      30.334  40.021 -48.619  0.00  0.00    -0.477 OA
ATOM     29  H   UNL     1      31.269  40.046 -48.856  0.00  0.00    +0.295 HD
ENDBRANCH  26  28
ENDBRANCH  25  26
ENDBRANCH  19  20
ENDBRANCH  18  19
ENDBRANCH  17  18
ENDBRANCH  16  17
ENDBRANCH   1  16
TORSDOF 9
