REMARK  Name = ./Pterin55_pose2.pdb
REMARK  1 active torsions:
REMARK  status: ('A' for Active; 'I' for Inactive)
REMARK    1  A    between atoms: C_6  and  S_16
REMARK                            x       y       z     vdW  Elec       q    Type
REMARK                         _______ _______ _______ _____ _____    ______ ____
ROOT
ATOM      1  C   UNL     1      28.294  38.702 -48.964  0.00  0.00    +0.195 A 
ATOM      2  N   UNL     1      28.318  39.779 -48.108  0.00  0.00    -0.293 N 
ATOM      3  C   UNL     1      27.195  40.141 -47.389  0.00  0.00    +0.280 A 
ATOM      4  C   UNL     1      26.048  39.381 -47.561  0.00  0.00    +0.173 A 
ATOM      5  N   UNL     1      24.833  39.511 -46.996  0.00  0.00    -0.215 NA
ATOM      6  C   UNL     1      24.126  38.488 -47.548  0.00  0.00    +0.166 A 
ATOM      7  N   UNL     1      24.852  37.746 -48.418  0.00  0.00    -0.318 N 
ATOM      8  C   UNL     1      26.055  38.328 -48.410  0.00  0.00    +0.167 A 
ATOM      9  N   UNL     1      27.150  37.965 -49.117  0.00  0.00    -0.197 NA
ATOM     10  O   UNL     1      27.216  41.095 -46.631  0.00  0.00    -0.265 OA
ATOM     11  H   UNL     1      29.196  40.335 -47.998  0.00  0.00    +0.172 HD
ATOM     12  H   UNL     1      24.544  36.914 -48.969  0.00  0.00    +0.169 HD
ATOM     13  N   UNL     1      29.453  38.347 -49.693  0.00  0.00    -0.329 N 
ATOM     14  H   UNL     1      29.378  37.970 -50.648  0.00  0.00    +0.145 HD
ATOM     15  H   UNL     1      30.386  38.460 -49.271  0.00  0.00    +0.145 HD
ENDROOT
BRANCH   6  16
ATOM     16  S   UNL     1      22.407  38.151 -47.169  0.00  0.00    -0.105 S 
ATOM     17  H   UNL     1      22.448  38.839 -45.941  0.00  0.00    +0.110 HD
ENDBRANCH   6  16
TORSDOF 1
